<additional xmlns:xsi="http://www.w3.org/2001/XMLSchema-instance" xsi:noNamespaceSchemaLocation="http://sumo.dlr.de/xsd/additional_file.xsd">
    <e1Detector file="e1output.xml" freq="60" friendlyPos="x" id="-10427692#1_1" lane="-10427692#1_1" pos="42.82"/>
    <e1Detector file="e1output.xml" freq="60" friendlyPos="x" id="-10427692#1_2" lane="-10427692#1_2" pos="42.82"/>
    <e1Detector file="e1output.xml" freq="60" friendlyPos="x" id="-18809672#1_1" lane="-18809672#1_1" pos="11.23"/>
    <e1Detector file="e1output.xml" freq="60" friendlyPos="x" id="-201963533#0_1" lane="-201963533#0_1" pos="4.24"/>
    <e1Detector file="e1output.xml" freq="60" friendlyPos="x" id="-201963533#0_2" lane="-201963533#0_2" pos="4.24"/>
    <e1Detector file="e1output.xml" freq="60" friendlyPos="x" id="-201963533#0_3" lane="-201963533#0_3" pos="4.24"/>
    <e1Detector file="e1output.xml" freq="60" friendlyPos="x" id="285549250#0_1" lane="285549250#0_1" pos="106.15"/>
    <e1Detector file="e1output.xml" freq="60" friendlyPos="x" id="285549250#0_2" lane="285549250#0_2" pos="106.15"/>
    <e1Detector file="e1output.xml" freq="60" friendlyPos="x" id="-129379918#1_1" lane="-129379918#1_1" pos="15.88"/>
    <e1Detector file="e1output.xml" freq="60" friendlyPos="x" id="-129379918#1_2" lane="-129379918#1_2" pos="15.88"/>
    <e1Detector file="e1output.xml" freq="60" friendlyPos="x" id="-447569997#0_1" lane="-447569997#0_1" pos="1.72"/>
    <e1Detector file="e1output.xml" freq="60" friendlyPos="x" id="-447569997#0_2" lane="-447569997#0_2" pos="1.72"/>
    <e1Detector file="e1output.xml" freq="60" friendlyPos="x" id="315358252#0_1" lane="315358252#0_1" pos="123.2"/>
    <e1Detector file="e1output.xml" freq="60" friendlyPos="x" id="315358252#0_2" lane="315358252#0_2" pos="123.2"/>
    <e1Detector file="e1output.xml" freq="60" friendlyPos="x" id="315358252#0_3" lane="315358252#0_3" pos="123.2"/>
    <e1Detector file="e1output.xml" freq="60" friendlyPos="x" id="-129379921#0_1" lane="-129379921#0_1" pos="18.049999999999997"/>
    <e1Detector file="e1output.xml" freq="60" friendlyPos="x" id="-129379921#0_2" lane="-129379921#0_2" pos="18.049999999999997"/>
    <e1Detector file="e1output.xml" freq="60" friendlyPos="x" id="-129379921#0_3" lane="-129379921#0_3" pos="18.049999999999997"/>
    <e1Detector file="e1output.xml" freq="60" friendlyPos="x" id="129379967#0_1" lane="129379967#0_1" pos="28.84"/>
    <e1Detector file="e1output.xml" freq="60" friendlyPos="x" id="129379967#0_2" lane="129379967#0_2" pos="28.84"/>
    <e1Detector file="e1output.xml" freq="60" friendlyPos="x" id="315358250#1_1" lane="315358250#1_1" pos="4.640000000000001"/>
    <e1Detector file="e1output.xml" freq="60" friendlyPos="x" id="315358250#1_2" lane="315358250#1_2" pos="4.640000000000001"/>
    <e1Detector file="e1output.xml" freq="60" friendlyPos="x" id="-136436466_1" lane="-136436466_1" pos="15.25"/>
    <e1Detector file="e1output.xml" freq="60" friendlyPos="x" id="-136436466_2" lane="-136436466_2" pos="15.25"/>
    <e1Detector file="e1output.xml" freq="60" friendlyPos="x" id="-136436466_3" lane="-136436466_3" pos="15.25"/>
    <e1Detector file="e1output.xml" freq="60" friendlyPos="x" id="315358251#1_1" lane="315358251#1_1" pos="0.1"/>
    <e1Detector file="e1output.xml" freq="60" friendlyPos="x" id="315358251#1_2" lane="315358251#1_2" pos="0.1"/>
    <e1Detector file="e1output.xml" freq="60" friendlyPos="x" id="315358251#1_3" lane="315358251#1_3" pos="0.1"/>
    <e1Detector file="e1output.xml" freq="60" friendlyPos="x" id="386687232#0_1" lane="386687232#0_1" pos="84.96000000000001"/>
    <e1Detector file="e1output.xml" freq="60" friendlyPos="x" id="386687232#0_2" lane="386687232#0_2" pos="84.96000000000001"/>
    <e1Detector file="e1output.xml" freq="60" friendlyPos="x" id="-170018165#1_1" lane="-170018165#1_1" pos="7.010000000000001"/>
    <e1Detector file="e1output.xml" freq="60" friendlyPos="x" id="-170018165#1_2" lane="-170018165#1_2" pos="7.010000000000001"/>
    <e1Detector file="e1output.xml" freq="60" friendlyPos="x" id="-170018165#1_3" lane="-170018165#1_3" pos="7.010000000000001"/>
    <e1Detector file="e1output.xml" freq="60" friendlyPos="x" id="170018165#0_1" lane="170018165#0_1" pos="9.65"/>
    <e1Detector file="e1output.xml" freq="60" friendlyPos="x" id="170018165#0_2" lane="170018165#0_2" pos="9.65"/>
    <e1Detector file="e1output.xml" freq="60" friendlyPos="x" id="224892361#7_1" lane="224892361#7_1" pos="125.91000000000001"/>
    <e1Detector file="e1output.xml" freq="60" friendlyPos="x" id="224892361#7_2" lane="224892361#7_2" pos="125.91000000000001"/>
    <e1Detector file="e1output.xml" freq="60" friendlyPos="x" id="-173169611#0_1" lane="-173169611#0_1" pos="69.9"/>
    <e1Detector file="e1output.xml" freq="60" friendlyPos="x" id="124812856#1_1" lane="124812856#1_1" pos="0.66"/>
    <e1Detector file="e1output.xml" freq="60" friendlyPos="x" id="124812856#1_2" lane="124812856#1_2" pos="0.66"/>
    <e1Detector file="e1output.xml" freq="60" friendlyPos="x" id="124812856#1_3" lane="124812856#1_3" pos="0.66"/>
    <e1Detector file="e1output.xml" freq="60" friendlyPos="x" id="201956819#0_1" lane="201956819#0_1" pos="105.56"/>
    <e1Detector file="e1output.xml" freq="60" friendlyPos="x" id="201956819#0_2" lane="201956819#0_2" pos="105.56"/>
    <e1Detector file="e1output.xml" freq="60" friendlyPos="x" id="-174800513_1" lane="-174800513_1" pos="12.0"/>
    <e1Detector file="e1output.xml" freq="60" friendlyPos="x" id="-174800513_2" lane="-174800513_2" pos="12.0"/>
    <e1Detector file="e1output.xml" freq="60" friendlyPos="x" id="176550249#4_1" lane="176550249#4_1" pos="270.9"/>
    <e1Detector file="e1output.xml" freq="60" friendlyPos="x" id="176550249#4_2" lane="176550249#4_2" pos="270.9"/>
    <e1Detector file="e1output.xml" freq="60" friendlyPos="x" id="201238718#1_1" lane="201238718#1_1" pos="43.629999999999995"/>
    <e1Detector file="e1output.xml" freq="60" friendlyPos="x" id="-18809673#1.275_1" lane="-18809673#1.275_1" pos="34.35"/>
    <e1Detector file="e1output.xml" freq="60" friendlyPos="x" id="-18809673#1.275_2" lane="-18809673#1.275_2" pos="34.35"/>
    <e1Detector file="e1output.xml" freq="60" friendlyPos="x" id="-18813598#1_1" lane="-18813598#1_1" pos="57.07"/>
    <e1Detector file="e1output.xml" freq="60" friendlyPos="x" id="-18813598#1_2" lane="-18813598#1_2" pos="57.07"/>
    <e1Detector file="e1output.xml" freq="60" friendlyPos="x" id="-25122731#1_1" lane="-25122731#1_1" pos="23.279999999999998"/>
    <e1Detector file="e1output.xml" freq="60" friendlyPos="x" id="201963522#6_1" lane="201963522#6_1" pos="92.26"/>
    <e1Detector file="e1output.xml" freq="60" friendlyPos="x" id="-201089423#1_1" lane="-201089423#1_1" pos="60.18"/>
    <e1Detector file="e1output.xml" freq="60" friendlyPos="x" id="-201089423#1_2" lane="-201089423#1_2" pos="60.18"/>
    <e1Detector file="e1output.xml" freq="60" friendlyPos="x" id="-24693977#0_1" lane="-24693977#0_1" pos="8.25"/>
    <e1Detector file="e1output.xml" freq="60" friendlyPos="x" id="-24693977#0_2" lane="-24693977#0_2" pos="8.25"/>
    <e1Detector file="e1output.xml" freq="60" friendlyPos="x" id="-24693977#0_3" lane="-24693977#0_3" pos="8.25"/>
    <e1Detector file="e1output.xml" freq="60" friendlyPos="x" id="32999434#0_1" lane="32999434#0_1" pos="112.79"/>
    <e1Detector file="e1output.xml" freq="60" friendlyPos="x" id="32999434#0_2" lane="32999434#0_2" pos="112.79"/>
    <e1Detector file="e1output.xml" freq="60" friendlyPos="x" id="-201201945#0.78_1" lane="-201201945#0.78_1" pos="53.519999999999996"/>
    <e1Detector file="e1output.xml" freq="60" friendlyPos="x" id="-201201945#0.78_2" lane="-201201945#0.78_2" pos="53.519999999999996"/>
    <e1Detector file="e1output.xml" freq="60" friendlyPos="x" id="174800513_1" lane="174800513_1" pos="12.0"/>
    <e1Detector file="e1output.xml" freq="60" friendlyPos="x" id="174800513_2" lane="174800513_2" pos="12.0"/>
    <e1Detector file="e1output.xml" freq="60" friendlyPos="x" id="23166741#5_1" lane="23166741#5_1" pos="170.08"/>
    <e1Detector file="e1output.xml" freq="60" friendlyPos="x" id="23166741#5_2" lane="23166741#5_2" pos="170.08"/>
    <e1Detector file="e1output.xml" freq="60" friendlyPos="x" id="-224892361#1_1" lane="-224892361#1_1" pos="42.55"/>
    <e1Detector file="e1output.xml" freq="60" friendlyPos="x" id="-224892361#1_2" lane="-224892361#1_2" pos="42.55"/>
    <e1Detector file="e1output.xml" freq="60" friendlyPos="x" id="-286646456#2_1" lane="-286646456#2_1" pos="78.14"/>
    <e1Detector file="e1output.xml" freq="60" friendlyPos="x" id="-286646456#2_2" lane="-286646456#2_2" pos="78.14"/>
    <e1Detector file="e1output.xml" freq="60" friendlyPos="x" id="286646456#0_1" lane="286646456#0_1" pos="32.769999999999996"/>
    <e1Detector file="e1output.xml" freq="60" friendlyPos="x" id="-22690205#1_1" lane="-22690205#1_1" pos="106.53"/>
    <e1Detector file="e1output.xml" freq="60" friendlyPos="x" id="-233675413#6_1" lane="-233675413#6_1" pos="49.07"/>
    <e1Detector file="e1output.xml" freq="60" friendlyPos="x" id="233675413#3_1" lane="233675413#3_1" pos="5.6000000000000005"/>
    <e1Detector file="e1output.xml" freq="60" friendlyPos="x" id="233675413#3_2" lane="233675413#3_2" pos="5.6000000000000005"/>
    <e1Detector file="e1output.xml" freq="60" friendlyPos="x" id="-306240162#1_0" lane="-306240162#1_0" pos="220.4"/>
    <e1Detector file="e1output.xml" freq="60" friendlyPos="x" id="-306240162#1_1" lane="-306240162#1_1" pos="220.4"/>
    <e1Detector file="e1output.xml" freq="60" friendlyPos="x" id="170018165#2.175_1" lane="170018165#2.175_1" pos="116.67"/>
    <e1Detector file="e1output.xml" freq="60" friendlyPos="x" id="170018165#2.175_2" lane="170018165#2.175_2" pos="116.67"/>
    <e1Detector file="e1output.xml" freq="60" friendlyPos="x" id="224251776#0_1" lane="224251776#0_1" pos="16.61"/>
    <e1Detector file="e1output.xml" freq="60" friendlyPos="x" id="224251776#0_2" lane="224251776#0_2" pos="16.61"/>
    <e1Detector file="e1output.xml" freq="60" friendlyPos="x" id="-4942389#0_1" lane="-4942389#0_1" pos="0.1"/>
    <e1Detector file="e1output.xml" freq="60" friendlyPos="x" id="-4942389#0_2" lane="-4942389#0_2" pos="0.1"/>
    <e1Detector file="e1output.xml" freq="60" friendlyPos="x" id="-4942389#0_3" lane="-4942389#0_3" pos="0.1"/>
    <e1Detector file="e1output.xml" freq="60" friendlyPos="x" id="136436466_1" lane="136436466_1" pos="15.25"/>
    <e1Detector file="e1output.xml" freq="60" friendlyPos="x" id="136436466_2" lane="136436466_2" pos="15.25"/>
    <e1Detector file="e1output.xml" freq="60" friendlyPos="x" id="136436466_3" lane="136436466_3" pos="15.25"/>
    <e1Detector file="e1output.xml" freq="60" friendlyPos="x" id="202092676#0_1" lane="202092676#0_1" pos="8.83"/>
    <e1Detector file="e1output.xml" freq="60" friendlyPos="x" id="202092676#0_2" lane="202092676#0_2" pos="8.83"/>
    <e1Detector file="e1output.xml" freq="60" friendlyPos="x" id="104010354_1" lane="104010354_1" pos="49.65"/>
    <e1Detector file="e1output.xml" freq="60" friendlyPos="x" id="104010354_2" lane="104010354_2" pos="49.65"/>
    <e1Detector file="e1output.xml" freq="60" friendlyPos="x" id="164051413_1" lane="164051413_1" pos="8.83"/>
    <e1Detector file="e1output.xml" freq="60" friendlyPos="x" id="164051413_2" lane="164051413_2" pos="8.83"/>
    <e1Detector file="e1output.xml" freq="60" friendlyPos="x" id="201963537#1_1" lane="201963537#1_1" pos="143.66"/>
    <e1Detector file="e1output.xml" freq="60" friendlyPos="x" id="201963537#1_2" lane="201963537#1_2" pos="143.66"/>
    <e1Detector file="e1output.xml" freq="60" friendlyPos="x" id="201963537#1_3" lane="201963537#1_3" pos="143.66"/>
    <e1Detector file="e1output.xml" freq="60" friendlyPos="x" id="104012170_1" lane="104012170_1" pos="44.46"/>
    <e1Detector file="e1output.xml" freq="60" friendlyPos="x" id="104012170_2" lane="104012170_2" pos="44.46"/>
    <e1Detector file="e1output.xml" freq="60" friendlyPos="x" id="104012170_3" lane="104012170_3" pos="44.46"/>
    <e1Detector file="e1output.xml" freq="60" friendlyPos="x" id="104012170_4" lane="104012170_4" pos="44.46"/>
    <e1Detector file="e1output.xml" freq="60" friendlyPos="x" id="27920078#1_1" lane="27920078#1_1" pos="24.61"/>
    <e1Detector file="e1output.xml" freq="60" friendlyPos="x" id="27920078#1_2" lane="27920078#1_2" pos="24.61"/>
    <e1Detector file="e1output.xml" freq="60" friendlyPos="x" id="27920078#1_3" lane="27920078#1_3" pos="24.61"/>
    <e1Detector file="e1output.xml" freq="60" friendlyPos="x" id="27920078#1_4" lane="27920078#1_4" pos="24.61"/>
    <e1Detector file="e1output.xml" freq="60" friendlyPos="x" id="285716192#0.83_1" lane="285716192#0.83_1" pos="11.68"/>
    <e1Detector file="e1output.xml" freq="60" friendlyPos="x" id="285716192#0.83_2" lane="285716192#0.83_2" pos="11.68"/>
    <e1Detector file="e1output.xml" freq="60" friendlyPos="x" id="285716192#0.83_3" lane="285716192#0.83_3" pos="11.68"/>
    <e1Detector file="e1output.xml" freq="60" friendlyPos="x" id="285716192#0.83_4" lane="285716192#0.83_4" pos="11.68"/>
    <e1Detector file="e1output.xml" freq="60" friendlyPos="x" id="10425609#1_1" lane="10425609#1_1" pos="0.8200000000000001"/>
    <e1Detector file="e1output.xml" freq="60" friendlyPos="x" id="10425609#1_2" lane="10425609#1_2" pos="0.8200000000000001"/>
    <e1Detector file="e1output.xml" freq="60" friendlyPos="x" id="10425609#1_3" lane="10425609#1_3" pos="0.8200000000000001"/>
    <e1Detector file="e1output.xml" freq="60" friendlyPos="x" id="124812857#0_1" lane="124812857#0_1" pos="143.39000000000001"/>
    <e1Detector file="e1output.xml" freq="60" friendlyPos="x" id="124812857#0_2" lane="124812857#0_2" pos="143.39000000000001"/>
    <e1Detector file="e1output.xml" freq="60" friendlyPos="x" id="124812857#0_3" lane="124812857#0_3" pos="143.39000000000001"/>
    <e1Detector file="e1output.xml" freq="60" friendlyPos="x" id="201956821#1.68_1" lane="201956821#1.68_1" pos="24.22"/>
    <e1Detector file="e1output.xml" freq="60" friendlyPos="x" id="201956821#1.68_2" lane="201956821#1.68_2" pos="24.22"/>
    <e1Detector file="e1output.xml" freq="60" friendlyPos="x" id="201956821#1.68_3" lane="201956821#1.68_3" pos="24.22"/>
    <e1Detector file="e1output.xml" freq="60" friendlyPos="x" id="128361109#4_1" lane="128361109#4_1" pos="0.1"/>
    <e1Detector file="e1output.xml" freq="60" friendlyPos="x" id="128361109#4_2" lane="128361109#4_2" pos="0.1"/>
    <e1Detector file="e1output.xml" freq="60" friendlyPos="x" id="128361109#4_3" lane="128361109#4_3" pos="0.1"/>
    <e1Detector file="e1output.xml" freq="60" friendlyPos="x" id="128361109#4_4" lane="128361109#4_4" pos="0.1"/>
    <e1Detector file="e1output.xml" freq="60" friendlyPos="x" id="137133006#1_1" lane="137133006#1_1" pos="4.37"/>
    <e1Detector file="e1output.xml" freq="60" friendlyPos="x" id="137133006#1_2" lane="137133006#1_2" pos="4.37"/>
    <e1Detector file="e1output.xml" freq="60" friendlyPos="x" id="137133006#1_3" lane="137133006#1_3" pos="4.37"/>
    <e1Detector file="e1output.xml" freq="60" friendlyPos="x" id="176550246_1" lane="176550246_1" pos="6.37"/>
    <e1Detector file="e1output.xml" freq="60" friendlyPos="x" id="176550246_2" lane="176550246_2" pos="6.37"/>
    <e1Detector file="e1output.xml" freq="60" friendlyPos="x" id="176550246_3" lane="176550246_3" pos="6.37"/>
    <e1Detector file="e1output.xml" freq="60" friendlyPos="x" id="176550246_4" lane="176550246_4" pos="6.37"/>
    <e1Detector file="e1output.xml" freq="60" friendlyPos="x" id="201238726#1_1" lane="201238726#1_1" pos="0.12"/>
    <e1Detector file="e1output.xml" freq="60" friendlyPos="x" id="201238726#1_2" lane="201238726#1_2" pos="0.12"/>
    <e1Detector file="e1output.xml" freq="60" friendlyPos="x" id="201238726#1_3" lane="201238726#1_3" pos="0.12"/>
    <e1Detector file="e1output.xml" freq="60" friendlyPos="x" id="168702040#4_1" lane="168702040#4_1" pos="5.25"/>
    <e1Detector file="e1output.xml" freq="60" friendlyPos="x" id="168702040#4_2" lane="168702040#4_2" pos="5.25"/>
    <e1Detector file="e1output.xml" freq="60" friendlyPos="x" id="168702040#4_3" lane="168702040#4_3" pos="5.25"/>
    <e1Detector file="e1output.xml" freq="60" friendlyPos="x" id="315358253#2_1" lane="315358253#2_1" pos="26.709999999999997"/>
    <e1Detector file="e1output.xml" freq="60" friendlyPos="x" id="315358253#2_2" lane="315358253#2_2" pos="26.709999999999997"/>
    <e1Detector file="e1output.xml" freq="60" friendlyPos="x" id="32999110#0_1" lane="32999110#0_1" pos="115.89"/>
    <e1Detector file="e1output.xml" freq="60" friendlyPos="x" id="32999110#0_2" lane="32999110#0_2" pos="115.89"/>
    <e1Detector file="e1output.xml" freq="60" friendlyPos="x" id="32999110#0_3" lane="32999110#0_3" pos="115.89"/>
    <e1Detector file="e1output.xml" freq="60" friendlyPos="x" id="315358254#0_1" lane="315358254#0_1" pos="136.61"/>
    <e1Detector file="e1output.xml" freq="60" friendlyPos="x" id="315358254#0_2" lane="315358254#0_2" pos="136.61"/>
    <e1Detector file="e1output.xml" freq="60" friendlyPos="x" id="315358255#0_1" lane="315358255#0_1" pos="199.63"/>
    <e1Detector file="e1output.xml" freq="60" friendlyPos="x" id="315358255#0_2" lane="315358255#0_2" pos="199.63"/>
    <e1Detector file="e1output.xml" freq="60" friendlyPos="x" id="315358257#0.43_1" lane="315358257#0.43_1" pos="50.699999999999996"/>
    <e1Detector file="e1output.xml" freq="60" friendlyPos="x" id="315358257#0.43_2" lane="315358257#0.43_2" pos="50.699999999999996"/>
    <e1Detector file="e1output.xml" freq="60" friendlyPos="x" id="612075153#1_1" lane="612075153#1_1" pos="8.43"/>
    <e1Detector file="e1output.xml" freq="60" friendlyPos="x" id="612075153#1_2" lane="612075153#1_2" pos="8.43"/>
    <e1Detector file="e1output.xml" freq="60" friendlyPos="x" id="32021112#0_1" lane="32021112#0_1" pos="58.559999999999995"/>
    <e1Detector file="e1output.xml" freq="60" friendlyPos="x" id="32021112#0_2" lane="32021112#0_2" pos="58.559999999999995"/>
    <e1Detector file="e1output.xml" freq="60" friendlyPos="x" id="32021112#0_3" lane="32021112#0_3" pos="58.559999999999995"/>
    <e1Detector file="e1output.xml" freq="60" friendlyPos="x" id="32124637#1_1" lane="32124637#1_1" pos="26.74"/>
    <e1Detector file="e1output.xml" freq="60" friendlyPos="x" id="32124637#1_2" lane="32124637#1_2" pos="26.74"/>
    <e1Detector file="e1output.xml" freq="60" friendlyPos="x" id="32124637#1_3" lane="32124637#1_3" pos="26.74"/>
    <e1Detector file="e1output.xml" freq="60" friendlyPos="x" id="51857517#1_1" lane="51857517#1_1" pos="15.74"/>
    <e1Detector file="e1output.xml" freq="60" friendlyPos="x" id="51857517#1_2" lane="51857517#1_2" pos="15.74"/>
    <e1Detector file="e1output.xml" freq="60" friendlyPos="x" id="51857517#1_3" lane="51857517#1_3" pos="15.74"/>
    <e1Detector file="e1output.xml" freq="60" friendlyPos="x" id="51857517#1_4" lane="51857517#1_4" pos="15.74"/>
</additional>
