<additional xmlns:xsi="http://www.w3.org/2001/XMLSchema-instance" xsi:noNamespaceSchemaLocation="http://sumo.dlr.de/xsd/additional_file.xsd">
    <laneAreaDetector file="e2output.xml" freq="60" friendlyPos="x" id="-10427692#1_1" lane="-10427692#1_1" length="42.82" pos="1.4155343563970746e-15"/>
    <laneAreaDetector file="e2output.xml" freq="60" friendlyPos="x" id="-10427692#1_2" lane="-10427692#1_2" length="42.82" pos="1.4155343563970746e-15"/>
    <laneAreaDetector file="e2output.xml" freq="60" friendlyPos="x" id="-18809672#1_1" lane="-18809672#1_1" length="11.23" pos="0"/>
    <laneAreaDetector file="e2output.xml" freq="60" friendlyPos="x" id="-201963533#0_1" lane="-201963533#0_1" length="4.24" pos="0"/>
    <laneAreaDetector file="e2output.xml" freq="60" friendlyPos="x" id="-201963533#0_2" lane="-201963533#0_2" length="4.24" pos="0"/>
    <laneAreaDetector file="e2output.xml" freq="60" friendlyPos="x" id="-201963533#0_3" lane="-201963533#0_3" length="4.24" pos="0"/>
    <laneAreaDetector file="e2output.xml" freq="60" friendlyPos="x" id="285549250#0_1" lane="285549250#0_1" length="50" pos="56.15"/>
    <laneAreaDetector file="e2output.xml" freq="60" friendlyPos="x" id="285549250#0_2" lane="285549250#0_2" length="50" pos="56.15"/>
    <laneAreaDetector file="e2output.xml" freq="60" friendlyPos="x" id="-129379918#1_1" lane="-129379918#1_1" length="15.88" pos="0"/>
    <laneAreaDetector file="e2output.xml" freq="60" friendlyPos="x" id="-129379918#1_2" lane="-129379918#1_2" length="15.88" pos="0"/>
    <laneAreaDetector file="e2output.xml" freq="60" friendlyPos="x" id="-447569997#0_1" lane="-447569997#0_1" length="1.72" pos="8.326672684688674e-17"/>
    <laneAreaDetector file="e2output.xml" freq="60" friendlyPos="x" id="-447569997#0_2" lane="-447569997#0_2" length="1.72" pos="8.326672684688674e-17"/>
    <laneAreaDetector file="e2output.xml" freq="60" friendlyPos="x" id="315358252#0_1" lane="315358252#0_1" length="50" pos="73.2"/>
    <laneAreaDetector file="e2output.xml" freq="60" friendlyPos="x" id="315358252#0_2" lane="315358252#0_2" length="50" pos="73.2"/>
    <laneAreaDetector file="e2output.xml" freq="60" friendlyPos="x" id="315358252#0_3" lane="315358252#0_3" length="50" pos="73.2"/>
    <laneAreaDetector file="e2output.xml" freq="60" friendlyPos="x" id="-129379921#0_1" lane="-129379921#0_1" length="18.049999999999997" pos="1.4155343563970746e-15"/>
    <laneAreaDetector file="e2output.xml" freq="60" friendlyPos="x" id="-129379921#0_2" lane="-129379921#0_2" length="18.049999999999997" pos="1.4155343563970746e-15"/>
    <laneAreaDetector file="e2output.xml" freq="60" friendlyPos="x" id="-129379921#0_3" lane="-129379921#0_3" length="18.049999999999997" pos="1.4155343563970746e-15"/>
    <laneAreaDetector file="e2output.xml" freq="60" friendlyPos="x" id="129379967#0_1" lane="129379967#0_1" length="28.84" pos="1.4155343563970746e-15"/>
    <laneAreaDetector file="e2output.xml" freq="60" friendlyPos="x" id="129379967#0_2" lane="129379967#0_2" length="28.84" pos="1.4155343563970746e-15"/>
    <laneAreaDetector file="e2output.xml" freq="60" friendlyPos="x" id="315358250#1_1" lane="315358250#1_1" length="4.640000000000001" pos="0"/>
    <laneAreaDetector file="e2output.xml" freq="60" friendlyPos="x" id="315358250#1_2" lane="315358250#1_2" length="4.640000000000001" pos="0"/>
    <laneAreaDetector file="e2output.xml" freq="60" friendlyPos="x" id="-136436466_1" lane="-136436466_1" length="15.25" pos="0"/>
    <laneAreaDetector file="e2output.xml" freq="60" friendlyPos="x" id="-136436466_2" lane="-136436466_2" length="15.25" pos="0"/>
    <laneAreaDetector file="e2output.xml" freq="60" friendlyPos="x" id="-136436466_3" lane="-136436466_3" length="15.25" pos="0"/>
    <laneAreaDetector file="e2output.xml" freq="60" friendlyPos="x" id="315358251#1_1" lane="315358251#1_1" length="0.1" pos="0"/>
    <laneAreaDetector file="e2output.xml" freq="60" friendlyPos="x" id="315358251#1_2" lane="315358251#1_2" length="0.1" pos="0"/>
    <laneAreaDetector file="e2output.xml" freq="60" friendlyPos="x" id="315358251#1_3" lane="315358251#1_3" length="0.1" pos="0"/>
    <laneAreaDetector file="e2output.xml" freq="60" friendlyPos="x" id="386687232#0_1" lane="386687232#0_1" length="50" pos="34.96"/>
    <laneAreaDetector file="e2output.xml" freq="60" friendlyPos="x" id="386687232#0_2" lane="386687232#0_2" length="50" pos="34.96"/>
    <laneAreaDetector file="e2output.xml" freq="60" friendlyPos="x" id="-170018165#1_1" lane="-170018165#1_1" length="7.010000000000001" pos="0"/>
    <laneAreaDetector file="e2output.xml" freq="60" friendlyPos="x" id="-170018165#1_2" lane="-170018165#1_2" length="7.010000000000001" pos="0"/>
    <laneAreaDetector file="e2output.xml" freq="60" friendlyPos="x" id="-170018165#1_3" lane="-170018165#1_3" length="7.010000000000001" pos="0"/>
    <laneAreaDetector file="e2output.xml" freq="60" friendlyPos="x" id="170018165#0_1" lane="170018165#0_1" length="9.65" pos="0"/>
    <laneAreaDetector file="e2output.xml" freq="60" friendlyPos="x" id="170018165#0_2" lane="170018165#0_2" length="9.65" pos="0"/>
    <laneAreaDetector file="e2output.xml" freq="60" friendlyPos="x" id="224892361#7_1" lane="224892361#7_1" length="50" pos="75.91000000000001"/>
    <laneAreaDetector file="e2output.xml" freq="60" friendlyPos="x" id="224892361#7_2" lane="224892361#7_2" length="50" pos="75.91000000000001"/>
    <laneAreaDetector file="e2output.xml" freq="60" friendlyPos="x" id="-173169611#0_1" lane="-173169611#0_1" length="50" pos="19.9"/>
    <laneAreaDetector file="e2output.xml" freq="60" friendlyPos="x" id="124812856#1_1" lane="124812856#1_1" length="0.66" pos="0"/>
    <laneAreaDetector file="e2output.xml" freq="60" friendlyPos="x" id="124812856#1_2" lane="124812856#1_2" length="0.66" pos="0"/>
    <laneAreaDetector file="e2output.xml" freq="60" friendlyPos="x" id="124812856#1_3" lane="124812856#1_3" length="0.66" pos="0"/>
    <laneAreaDetector file="e2output.xml" freq="60" friendlyPos="x" id="201956819#0_1" lane="201956819#0_1" length="50" pos="55.559999999999995"/>
    <laneAreaDetector file="e2output.xml" freq="60" friendlyPos="x" id="201956819#0_2" lane="201956819#0_2" length="50" pos="55.559999999999995"/>
    <laneAreaDetector file="e2output.xml" freq="60" friendlyPos="x" id="-174800513_1" lane="-174800513_1" length="12.0" pos="0"/>
    <laneAreaDetector file="e2output.xml" freq="60" friendlyPos="x" id="-174800513_2" lane="-174800513_2" length="12.0" pos="0"/>
    <laneAreaDetector file="e2output.xml" freq="60" friendlyPos="x" id="176550249#4_1" lane="176550249#4_1" length="50" pos="220.9"/>
    <laneAreaDetector file="e2output.xml" freq="60" friendlyPos="x" id="176550249#4_2" lane="176550249#4_2" length="50" pos="220.9"/>
    <laneAreaDetector file="e2output.xml" freq="60" friendlyPos="x" id="201238718#1_1" lane="201238718#1_1" length="43.629999999999995" pos="1.4155343563970746e-15"/>
    <laneAreaDetector file="e2output.xml" freq="60" friendlyPos="x" id="-18809673#1.275_1" lane="-18809673#1.275_1" length="34.35" pos="1.4155343563970746e-15"/>
    <laneAreaDetector file="e2output.xml" freq="60" friendlyPos="x" id="-18809673#1.275_2" lane="-18809673#1.275_2" length="34.35" pos="1.4155343563970746e-15"/>
    <laneAreaDetector file="e2output.xml" freq="60" friendlyPos="x" id="-18813598#1_1" lane="-18813598#1_1" length="50" pos="7.070000000000002"/>
    <laneAreaDetector file="e2output.xml" freq="60" friendlyPos="x" id="-18813598#1_2" lane="-18813598#1_2" length="50" pos="7.070000000000002"/>
    <laneAreaDetector file="e2output.xml" freq="60" friendlyPos="x" id="-25122731#1_1" lane="-25122731#1_1" length="23.279999999999998" pos="1.4155343563970746e-15"/>
    <laneAreaDetector file="e2output.xml" freq="60" friendlyPos="x" id="201963522#6_1" lane="201963522#6_1" length="50" pos="42.26"/>
    <laneAreaDetector file="e2output.xml" freq="60" friendlyPos="x" id="-201089423#1_1" lane="-201089423#1_1" length="50" pos="10.180000000000001"/>
    <laneAreaDetector file="e2output.xml" freq="60" friendlyPos="x" id="-201089423#1_2" lane="-201089423#1_2" length="50" pos="10.180000000000001"/>
    <laneAreaDetector file="e2output.xml" freq="60" friendlyPos="x" id="-24693977#0_1" lane="-24693977#0_1" length="8.25" pos="0"/>
    <laneAreaDetector file="e2output.xml" freq="60" friendlyPos="x" id="-24693977#0_2" lane="-24693977#0_2" length="8.25" pos="0"/>
    <laneAreaDetector file="e2output.xml" freq="60" friendlyPos="x" id="-24693977#0_3" lane="-24693977#0_3" length="8.25" pos="0"/>
    <laneAreaDetector file="e2output.xml" freq="60" friendlyPos="x" id="32999434#0_1" lane="32999434#0_1" length="50" pos="62.79"/>
    <laneAreaDetector file="e2output.xml" freq="60" friendlyPos="x" id="32999434#0_2" lane="32999434#0_2" length="50" pos="62.79"/>
    <laneAreaDetector file="e2output.xml" freq="60" friendlyPos="x" id="-201201945#0.78_1" lane="-201201945#0.78_1" length="50" pos="3.5199999999999974"/>
    <laneAreaDetector file="e2output.xml" freq="60" friendlyPos="x" id="-201201945#0.78_2" lane="-201201945#0.78_2" length="50" pos="3.5199999999999974"/>
    <laneAreaDetector file="e2output.xml" freq="60" friendlyPos="x" id="174800513_1" lane="174800513_1" length="12.0" pos="0"/>
    <laneAreaDetector file="e2output.xml" freq="60" friendlyPos="x" id="174800513_2" lane="174800513_2" length="12.0" pos="0"/>
    <laneAreaDetector file="e2output.xml" freq="60" friendlyPos="x" id="23166741#5_1" lane="23166741#5_1" length="50" pos="120.08000000000001"/>
    <laneAreaDetector file="e2output.xml" freq="60" friendlyPos="x" id="23166741#5_2" lane="23166741#5_2" length="50" pos="120.08000000000001"/>
    <laneAreaDetector file="e2output.xml" freq="60" friendlyPos="x" id="-224892361#1_1" lane="-224892361#1_1" length="42.55" pos="1.4155343563970746e-15"/>
    <laneAreaDetector file="e2output.xml" freq="60" friendlyPos="x" id="-224892361#1_2" lane="-224892361#1_2" length="42.55" pos="1.4155343563970746e-15"/>
    <laneAreaDetector file="e2output.xml" freq="60" friendlyPos="x" id="-286646456#2_1" lane="-286646456#2_1" length="50" pos="28.139999999999993"/>
    <laneAreaDetector file="e2output.xml" freq="60" friendlyPos="x" id="-286646456#2_2" lane="-286646456#2_2" length="50" pos="28.139999999999993"/>
    <laneAreaDetector file="e2output.xml" freq="60" friendlyPos="x" id="286646456#0_1" lane="286646456#0_1" length="32.769999999999996" pos="1.4155343563970746e-15"/>
    <laneAreaDetector file="e2output.xml" freq="60" friendlyPos="x" id="-22690205#1_1" lane="-22690205#1_1" length="50" pos="56.529999999999994"/>
    <laneAreaDetector file="e2output.xml" freq="60" friendlyPos="x" id="-233675413#6_1" lane="-233675413#6_1" length="49.07" pos="1.4155343563970746e-15"/>
    <laneAreaDetector file="e2output.xml" freq="60" friendlyPos="x" id="233675413#3_1" lane="233675413#3_1" length="5.6000000000000005" pos="0"/>
    <laneAreaDetector file="e2output.xml" freq="60" friendlyPos="x" id="233675413#3_2" lane="233675413#3_2" length="5.6000000000000005" pos="0"/>
    <laneAreaDetector file="e2output.xml" freq="60" friendlyPos="x" id="-306240162#1_0" lane="-306240162#1_0" length="50" pos="170.4"/>
    <laneAreaDetector file="e2output.xml" freq="60" friendlyPos="x" id="-306240162#1_1" lane="-306240162#1_1" length="50" pos="170.4"/>
    <laneAreaDetector file="e2output.xml" freq="60" friendlyPos="x" id="170018165#2.175_1" lane="170018165#2.175_1" length="50" pos="66.67"/>
    <laneAreaDetector file="e2output.xml" freq="60" friendlyPos="x" id="170018165#2.175_2" lane="170018165#2.175_2" length="50" pos="66.67"/>
    <laneAreaDetector file="e2output.xml" freq="60" friendlyPos="x" id="224251776#0_1" lane="224251776#0_1" length="16.61" pos="1.4155343563970746e-15"/>
    <laneAreaDetector file="e2output.xml" freq="60" friendlyPos="x" id="224251776#0_2" lane="224251776#0_2" length="16.61" pos="1.4155343563970746e-15"/>
    <laneAreaDetector file="e2output.xml" freq="60" friendlyPos="x" id="-4942389#0_1" lane="-4942389#0_1" length="0.1" pos="0"/>
    <laneAreaDetector file="e2output.xml" freq="60" friendlyPos="x" id="-4942389#0_2" lane="-4942389#0_2" length="0.1" pos="0"/>
    <laneAreaDetector file="e2output.xml" freq="60" friendlyPos="x" id="-4942389#0_3" lane="-4942389#0_3" length="0.1" pos="0"/>
    <laneAreaDetector file="e2output.xml" freq="60" friendlyPos="x" id="136436466_1" lane="136436466_1" length="15.25" pos="0"/>
    <laneAreaDetector file="e2output.xml" freq="60" friendlyPos="x" id="136436466_2" lane="136436466_2" length="15.25" pos="0"/>
    <laneAreaDetector file="e2output.xml" freq="60" friendlyPos="x" id="136436466_3" lane="136436466_3" length="15.25" pos="0"/>
    <laneAreaDetector file="e2output.xml" freq="60" friendlyPos="x" id="202092676#0_1" lane="202092676#0_1" length="8.83" pos="0"/>
    <laneAreaDetector file="e2output.xml" freq="60" friendlyPos="x" id="202092676#0_2" lane="202092676#0_2" length="8.83" pos="0"/>
    <laneAreaDetector file="e2output.xml" freq="60" friendlyPos="x" id="104010354_1" lane="104010354_1" length="49.65" pos="1.4155343563970746e-15"/>
    <laneAreaDetector file="e2output.xml" freq="60" friendlyPos="x" id="104010354_2" lane="104010354_2" length="49.65" pos="1.4155343563970746e-15"/>
    <laneAreaDetector file="e2output.xml" freq="60" friendlyPos="x" id="164051413_1" lane="164051413_1" length="8.83" pos="0"/>
    <laneAreaDetector file="e2output.xml" freq="60" friendlyPos="x" id="164051413_2" lane="164051413_2" length="8.83" pos="0"/>
    <laneAreaDetector file="e2output.xml" freq="60" friendlyPos="x" id="201963537#1_1" lane="201963537#1_1" length="50" pos="93.66"/>
    <laneAreaDetector file="e2output.xml" freq="60" friendlyPos="x" id="201963537#1_2" lane="201963537#1_2" length="50" pos="93.66"/>
    <laneAreaDetector file="e2output.xml" freq="60" friendlyPos="x" id="201963537#1_3" lane="201963537#1_3" length="50" pos="93.66"/>
    <laneAreaDetector file="e2output.xml" freq="60" friendlyPos="x" id="104012170_1" lane="104012170_1" length="44.46" pos="1.4155343563970746e-15"/>
    <laneAreaDetector file="e2output.xml" freq="60" friendlyPos="x" id="104012170_2" lane="104012170_2" length="44.46" pos="1.4155343563970746e-15"/>
    <laneAreaDetector file="e2output.xml" freq="60" friendlyPos="x" id="104012170_3" lane="104012170_3" length="44.46" pos="1.4155343563970746e-15"/>
    <laneAreaDetector file="e2output.xml" freq="60" friendlyPos="x" id="104012170_4" lane="104012170_4" length="44.46" pos="1.4155343563970746e-15"/>
    <laneAreaDetector file="e2output.xml" freq="60" friendlyPos="x" id="27920078#1_1" lane="27920078#1_1" length="24.61" pos="1.4155343563970746e-15"/>
    <laneAreaDetector file="e2output.xml" freq="60" friendlyPos="x" id="27920078#1_2" lane="27920078#1_2" length="24.61" pos="1.4155343563970746e-15"/>
    <laneAreaDetector file="e2output.xml" freq="60" friendlyPos="x" id="27920078#1_3" lane="27920078#1_3" length="24.61" pos="1.4155343563970746e-15"/>
    <laneAreaDetector file="e2output.xml" freq="60" friendlyPos="x" id="27920078#1_4" lane="27920078#1_4" length="24.61" pos="1.4155343563970746e-15"/>
    <laneAreaDetector file="e2output.xml" freq="60" friendlyPos="x" id="285716192#0.83_1" lane="285716192#0.83_1" length="11.68" pos="0"/>
    <laneAreaDetector file="e2output.xml" freq="60" friendlyPos="x" id="285716192#0.83_2" lane="285716192#0.83_2" length="11.68" pos="0"/>
    <laneAreaDetector file="e2output.xml" freq="60" friendlyPos="x" id="285716192#0.83_3" lane="285716192#0.83_3" length="11.68" pos="0"/>
    <laneAreaDetector file="e2output.xml" freq="60" friendlyPos="x" id="285716192#0.83_4" lane="285716192#0.83_4" length="11.68" pos="0"/>
    <laneAreaDetector file="e2output.xml" freq="60" friendlyPos="x" id="10425609#1_1" lane="10425609#1_1" length="0.8200000000000001" pos="0"/>
    <laneAreaDetector file="e2output.xml" freq="60" friendlyPos="x" id="10425609#1_2" lane="10425609#1_2" length="0.8200000000000001" pos="0"/>
    <laneAreaDetector file="e2output.xml" freq="60" friendlyPos="x" id="10425609#1_3" lane="10425609#1_3" length="0.8200000000000001" pos="0"/>
    <laneAreaDetector file="e2output.xml" freq="60" friendlyPos="x" id="124812857#0_1" lane="124812857#0_1" length="50" pos="93.39000000000001"/>
    <laneAreaDetector file="e2output.xml" freq="60" friendlyPos="x" id="124812857#0_2" lane="124812857#0_2" length="50" pos="93.39000000000001"/>
    <laneAreaDetector file="e2output.xml" freq="60" friendlyPos="x" id="124812857#0_3" lane="124812857#0_3" length="50" pos="93.39000000000001"/>
    <laneAreaDetector file="e2output.xml" freq="60" friendlyPos="x" id="201956821#1.68_1" lane="201956821#1.68_1" length="24.22" pos="1.4155343563970746e-15"/>
    <laneAreaDetector file="e2output.xml" freq="60" friendlyPos="x" id="201956821#1.68_2" lane="201956821#1.68_2" length="24.22" pos="1.4155343563970746e-15"/>
    <laneAreaDetector file="e2output.xml" freq="60" friendlyPos="x" id="201956821#1.68_3" lane="201956821#1.68_3" length="24.22" pos="1.4155343563970746e-15"/>
    <laneAreaDetector file="e2output.xml" freq="60" friendlyPos="x" id="128361109#4_1" lane="128361109#4_1" length="0.1" pos="0"/>
    <laneAreaDetector file="e2output.xml" freq="60" friendlyPos="x" id="128361109#4_2" lane="128361109#4_2" length="0.1" pos="0"/>
    <laneAreaDetector file="e2output.xml" freq="60" friendlyPos="x" id="128361109#4_3" lane="128361109#4_3" length="0.1" pos="0"/>
    <laneAreaDetector file="e2output.xml" freq="60" friendlyPos="x" id="128361109#4_4" lane="128361109#4_4" length="0.1" pos="0"/>
    <laneAreaDetector file="e2output.xml" freq="60" friendlyPos="x" id="137133006#1_1" lane="137133006#1_1" length="4.37" pos="0"/>
    <laneAreaDetector file="e2output.xml" freq="60" friendlyPos="x" id="137133006#1_2" lane="137133006#1_2" length="4.37" pos="0"/>
    <laneAreaDetector file="e2output.xml" freq="60" friendlyPos="x" id="137133006#1_3" lane="137133006#1_3" length="4.37" pos="0"/>
    <laneAreaDetector file="e2output.xml" freq="60" friendlyPos="x" id="176550246_1" lane="176550246_1" length="6.37" pos="0"/>
    <laneAreaDetector file="e2output.xml" freq="60" friendlyPos="x" id="176550246_2" lane="176550246_2" length="6.37" pos="0"/>
    <laneAreaDetector file="e2output.xml" freq="60" friendlyPos="x" id="176550246_3" lane="176550246_3" length="6.37" pos="0"/>
    <laneAreaDetector file="e2output.xml" freq="60" friendlyPos="x" id="176550246_4" lane="176550246_4" length="6.37" pos="0"/>
    <laneAreaDetector file="e2output.xml" freq="60" friendlyPos="x" id="201238726#1_1" lane="201238726#1_1" length="0.12" pos="0"/>
    <laneAreaDetector file="e2output.xml" freq="60" friendlyPos="x" id="201238726#1_2" lane="201238726#1_2" length="0.12" pos="0"/>
    <laneAreaDetector file="e2output.xml" freq="60" friendlyPos="x" id="201238726#1_3" lane="201238726#1_3" length="0.12" pos="0"/>
    <laneAreaDetector file="e2output.xml" freq="60" friendlyPos="x" id="168702040#4_1" lane="168702040#4_1" length="5.25" pos="0"/>
    <laneAreaDetector file="e2output.xml" freq="60" friendlyPos="x" id="168702040#4_2" lane="168702040#4_2" length="5.25" pos="0"/>
    <laneAreaDetector file="e2output.xml" freq="60" friendlyPos="x" id="168702040#4_3" lane="168702040#4_3" length="5.25" pos="0"/>
    <laneAreaDetector file="e2output.xml" freq="60" friendlyPos="x" id="315358253#2_1" lane="315358253#2_1" length="26.709999999999997" pos="1.4155343563970746e-15"/>
    <laneAreaDetector file="e2output.xml" freq="60" friendlyPos="x" id="315358253#2_2" lane="315358253#2_2" length="26.709999999999997" pos="1.4155343563970746e-15"/>
    <laneAreaDetector file="e2output.xml" freq="60" friendlyPos="x" id="32999110#0_1" lane="32999110#0_1" length="50" pos="65.89"/>
    <laneAreaDetector file="e2output.xml" freq="60" friendlyPos="x" id="32999110#0_2" lane="32999110#0_2" length="50" pos="65.89"/>
    <laneAreaDetector file="e2output.xml" freq="60" friendlyPos="x" id="32999110#0_3" lane="32999110#0_3" length="50" pos="65.89"/>
    <laneAreaDetector file="e2output.xml" freq="60" friendlyPos="x" id="315358254#0_1" lane="315358254#0_1" length="50" pos="86.61000000000001"/>
    <laneAreaDetector file="e2output.xml" freq="60" friendlyPos="x" id="315358254#0_2" lane="315358254#0_2" length="50" pos="86.61000000000001"/>
    <laneAreaDetector file="e2output.xml" freq="60" friendlyPos="x" id="315358255#0_1" lane="315358255#0_1" length="50" pos="149.63"/>
    <laneAreaDetector file="e2output.xml" freq="60" friendlyPos="x" id="315358255#0_2" lane="315358255#0_2" length="50" pos="149.63"/>
    <laneAreaDetector file="e2output.xml" freq="60" friendlyPos="x" id="315358257#0.43_1" lane="315358257#0.43_1" length="50" pos="0.6999999999999972"/>
    <laneAreaDetector file="e2output.xml" freq="60" friendlyPos="x" id="315358257#0.43_2" lane="315358257#0.43_2" length="50" pos="0.6999999999999972"/>
    <laneAreaDetector file="e2output.xml" freq="60" friendlyPos="x" id="612075153#1_1" lane="612075153#1_1" length="8.43" pos="0"/>
    <laneAreaDetector file="e2output.xml" freq="60" friendlyPos="x" id="612075153#1_2" lane="612075153#1_2" length="8.43" pos="0"/>
    <laneAreaDetector file="e2output.xml" freq="60" friendlyPos="x" id="32021112#0_1" lane="32021112#0_1" length="50" pos="8.559999999999997"/>
    <laneAreaDetector file="e2output.xml" freq="60" friendlyPos="x" id="32021112#0_2" lane="32021112#0_2" length="50" pos="8.559999999999997"/>
    <laneAreaDetector file="e2output.xml" freq="60" friendlyPos="x" id="32021112#0_3" lane="32021112#0_3" length="50" pos="8.559999999999997"/>
    <laneAreaDetector file="e2output.xml" freq="60" friendlyPos="x" id="32124637#1_1" lane="32124637#1_1" length="26.74" pos="1.4155343563970746e-15"/>
    <laneAreaDetector file="e2output.xml" freq="60" friendlyPos="x" id="32124637#1_2" lane="32124637#1_2" length="26.74" pos="1.4155343563970746e-15"/>
    <laneAreaDetector file="e2output.xml" freq="60" friendlyPos="x" id="32124637#1_3" lane="32124637#1_3" length="26.74" pos="1.4155343563970746e-15"/>
    <laneAreaDetector file="e2output.xml" freq="60" friendlyPos="x" id="51857517#1_1" lane="51857517#1_1" length="15.74" pos="0"/>
    <laneAreaDetector file="e2output.xml" freq="60" friendlyPos="x" id="51857517#1_2" lane="51857517#1_2" length="15.74" pos="0"/>
    <laneAreaDetector file="e2output.xml" freq="60" friendlyPos="x" id="51857517#1_3" lane="51857517#1_3" length="15.74" pos="0"/>
    <laneAreaDetector file="e2output.xml" freq="60" friendlyPos="x" id="51857517#1_4" lane="51857517#1_4" length="15.74" pos="0"/>
</additional>
