<configuration>
  <input>
    <net-file value="ingolstadt21.net.xml"/>
	<route-files value="ingolstadt21.rou.xml"/>
	<additional-files value="e1.add.xml, e2.add.xml"/>
  </input>
  <time>
    <begin value="57600"/>
    <end value="61200"/>
  </time>
</configuration>
