<additional xmlns:xsi="http://www.w3.org/2001/XMLSchema-instance" xsi:noNamespaceSchemaLocation="http://sumo.dlr.de/xsd/additional_file.xsd">
    <e1Detector file="e1output.xml" freq="60" friendlyPos="x" id="e1det_-1050942998#1_0" lane="-1050942998#1_0" pos="5.4"/>
    <e1Detector file="e1output.xml" freq="60" friendlyPos="x" id="e1det_1050942994#7_0" lane="1050942994#7_0" pos="256.06"/>
    <e1Detector file="e1output.xml" freq="60" friendlyPos="x" id="e1det_1050942994#7_1" lane="1050942994#7_1" pos="256.06"/>
    <e1Detector file="e1output.xml" freq="60" friendlyPos="x" id="e1det_1050942998#0_0" lane="1050942998#0_0" pos="370.62"/>
    <e1Detector file="e1output.xml" freq="60" friendlyPos="x" id="e1det_-107586296#3_0" lane="-107586296#3_0" pos="132.24"/>
    <e1Detector file="e1output.xml" freq="60" friendlyPos="x" id="e1det_1051576670#0_0" lane="1051576670#0_0" pos="247.1"/>
    <e1Detector file="e1output.xml" freq="60" friendlyPos="x" id="e1det_107586296#0_0" lane="107586296#0_0" pos="442.85999999999996"/>
    <e1Detector file="e1output.xml" freq="60" friendlyPos="x" id="e1det_292313599#0_0" lane="292313599#0_0" pos="238.47"/>
    <e1Detector file="e1output.xml" freq="60" friendlyPos="x" id="e1det_-107586296#5_0" lane="-107586296#5_0" pos="196.33"/>
    <e1Detector file="e1output.xml" freq="60" friendlyPos="x" id="e1det_-107586319#1_0" lane="-107586319#1_0" pos="247.61"/>
    <e1Detector file="e1output.xml" freq="60" friendlyPos="x" id="e1det_107586296#4_0" lane="107586296#4_0" pos="104.42"/>
    <e1Detector file="e1output.xml" freq="60" friendlyPos="x" id="e1det_107586319#0_0" lane="107586319#0_0" pos="235.43"/>
    <e1Detector file="e1output.xml" freq="60" friendlyPos="x" id="e1det_-208128048#3_0" lane="-208128048#3_0" pos="107.60000000000001"/>
    <e1Detector file="e1output.xml" freq="60" friendlyPos="x" id="e1det_-529249851#3_0" lane="-529249851#3_0" pos="360.84"/>
    <e1Detector file="e1output.xml" freq="60" friendlyPos="x" id="e1det_208128048#0_0" lane="208128048#0_0" pos="325.29999999999995"/>
    <e1Detector file="e1output.xml" freq="60" friendlyPos="x" id="e1det_529249851#0_0" lane="529249851#0_0" pos="333.83"/>
    <e1Detector file="e1output.xml" freq="60" friendlyPos="x" id="e1det_-208128048#9_0" lane="-208128048#9_0" pos="352.62"/>
    <e1Detector file="e1output.xml" freq="60" friendlyPos="x" id="e1det_208128048#4_0" lane="208128048#4_0" pos="217.04"/>
    <e1Detector file="e1output.xml" freq="60" friendlyPos="x" id="e1det_208128050#1_0" lane="208128050#1_0" pos="319.08"/>
    <e1Detector file="e1output.xml" freq="60" friendlyPos="x" id="e1det_208128051#6_0" lane="208128051#6_0" pos="178.84"/>
    <e1Detector file="e1output.xml" freq="60" friendlyPos="x" id="e1det_-208128052#11_0" lane="-208128052#11_0" pos="243.32"/>
    <e1Detector file="e1output.xml" freq="60" friendlyPos="x" id="e1det_-778460597#9_0" lane="-778460597#9_0" pos="246.58"/>
    <e1Detector file="e1output.xml" freq="60" friendlyPos="x" id="e1det_208128052#9_0" lane="208128052#9_0" pos="329.21999999999997"/>
    <e1Detector file="e1output.xml" freq="60" friendlyPos="x" id="e1det_778460597#3_0" lane="778460597#3_0" pos="241.19"/>
    <e1Detector file="e1output.xml" freq="60" friendlyPos="x" id="e1det_-208128052#2_0" lane="-208128052#2_0" pos="152.86"/>
    <e1Detector file="e1output.xml" freq="60" friendlyPos="x" id="e1det_-529249851#4_0" lane="-529249851#4_0" pos="269.44"/>
    <e1Detector file="e1output.xml" freq="60" friendlyPos="x" id="e1det_208128052#0_0" lane="208128052#0_0" pos="285.0"/>
    <e1Detector file="e1output.xml" freq="60" friendlyPos="x" id="e1det_529249851#1_0" lane="529249851#1_0" pos="359.69"/>
    <e1Detector file="e1output.xml" freq="60" friendlyPos="x" id="e1det_-208128052#8_0" lane="-208128052#8_0" pos="15.75"/>
    <e1Detector file="e1output.xml" freq="60" friendlyPos="x" id="e1det_208128050#5_0" lane="208128050#5_0" pos="32.51"/>
    <e1Detector file="e1output.xml" freq="60" friendlyPos="x" id="e1det_208128051#4_0" lane="208128051#4_0" pos="34.99"/>
    <e1Detector file="e1output.xml" freq="60" friendlyPos="x" id="e1det_208128052#6_0" lane="208128052#6_0" pos="26.77"/>
    <e1Detector file="e1output.xml" freq="60" friendlyPos="x" id="e1det_-208128055#6_0" lane="-208128055#6_0" pos="174.45000000000002"/>
    <e1Detector file="e1output.xml" freq="60" friendlyPos="x" id="e1det_-529249851#6_0" lane="-529249851#6_0" pos="223.41"/>
    <e1Detector file="e1output.xml" freq="60" friendlyPos="x" id="e1det_208128055#2_0" lane="208128055#2_0" pos="118.54"/>
    <e1Detector file="e1output.xml" freq="60" friendlyPos="x" id="e1det_529249851#4_0" lane="529249851#4_0" pos="269.07"/>
    <e1Detector file="e1output.xml" freq="60" friendlyPos="x" id="e1det_-219961340#4_0" lane="-219961340#4_0" pos="469.77"/>
    <e1Detector file="e1output.xml" freq="60" friendlyPos="x" id="e1det_-689220805#6_0" lane="-689220805#6_0" pos="223.63"/>
    <e1Detector file="e1output.xml" freq="60" friendlyPos="x" id="e1det_219961340#0_0" lane="219961340#0_0" pos="389.33"/>
    <e1Detector file="e1output.xml" freq="60" friendlyPos="x" id="e1det_689220805#5_0" lane="689220805#5_0" pos="336.47999999999996"/>
    <e1Detector file="e1output.xml" freq="60" friendlyPos="x" id="e1det_-219961340#7_0" lane="-219961340#7_0" pos="325.39"/>
    <e1Detector file="e1output.xml" freq="60" friendlyPos="x" id="e1det_219961340#3_0" lane="219961340#3_0" pos="468.88"/>
    <e1Detector file="e1output.xml" freq="60" friendlyPos="x" id="e1det_636236927#1_0" lane="636236927#1_0" pos="349.69"/>
    <e1Detector file="e1output.xml" freq="60" friendlyPos="x" id="e1det_636236957#2_0" lane="636236957#2_0" pos="44.92"/>
    <e1Detector file="e1output.xml" freq="60" friendlyPos="x" id="e1det_-226526602#4_0" lane="-226526602#4_0" pos="416.26"/>
    <e1Detector file="e1output.xml" freq="60" friendlyPos="x" id="e1det_226526602#0_0" lane="226526602#0_0" pos="339.22999999999996"/>
    <e1Detector file="e1output.xml" freq="60" friendlyPos="x" id="e1det_237904516#5_0" lane="237904516#5_0" pos="363.72999999999996"/>
    <e1Detector file="e1output.xml" freq="60" friendlyPos="x" id="e1det_264955006#1_0" lane="264955006#1_0" pos="6.28"/>
    <e1Detector file="e1output.xml" freq="60" friendlyPos="x" id="e1det_-488882755#4_0" lane="-488882755#4_0" pos="315.09999999999997"/>
    <e1Detector file="e1output.xml" freq="60" friendlyPos="x" id="e1det_-533894266#3_0" lane="-533894266#3_0" pos="500.71999999999997"/>
    <e1Detector file="e1output.xml" freq="60" friendlyPos="x" id="e1det_488882755#2_0" lane="488882755#2_0" pos="46.089999999999996"/>
    <e1Detector file="e1output.xml" freq="60" friendlyPos="x" id="e1det_488882769#1_0" lane="488882769#1_0" pos="166.88"/>
    <e1Detector file="e1output.xml" freq="60" friendlyPos="x" id="e1det_-489105647#2_0" lane="-489105647#2_0" pos="201.0"/>
    <e1Detector file="e1output.xml" freq="60" friendlyPos="x" id="e1det_-529249851#0_0" lane="-529249851#0_0" pos="333.34"/>
    <e1Detector file="e1output.xml" freq="60" friendlyPos="x" id="e1det_231901939#6_0" lane="231901939#6_0" pos="395.59999999999997"/>
    <e1Detector file="e1output.xml" freq="60" friendlyPos="x" id="e1det_231901939#6_1" lane="231901939#6_1" pos="395.59999999999997"/>
    <e1Detector file="e1output.xml" freq="60" friendlyPos="x" id="e1det_231901941#1_0" lane="231901941#1_0" pos="81.58000000000001"/>
    <e1Detector file="e1output.xml" freq="60" friendlyPos="x" id="e1det_231901941#1_1" lane="231901941#1_1" pos="81.58000000000001"/>
    <e1Detector file="e1output.xml" freq="60" friendlyPos="x" id="e1det_-51191097#2_0" lane="-51191097#2_0" pos="132.77"/>
    <e1Detector file="e1output.xml" freq="60" friendlyPos="x" id="e1det_264955661#1_0" lane="264955661#1_0" pos="419.62"/>
    <e1Detector file="e1output.xml" freq="60" friendlyPos="x" id="e1det_51191097#0_0" lane="51191097#0_0" pos="446.53"/>
    <e1Detector file="e1output.xml" freq="60" friendlyPos="x" id="e1det_-533679822#6_0" lane="-533679822#6_0" pos="232.98000000000002"/>
    <e1Detector file="e1output.xml" freq="60" friendlyPos="x" id="e1det_-533894266#1_0" lane="-533894266#1_0" pos="301.37"/>
    <e1Detector file="e1output.xml" freq="60" friendlyPos="x" id="e1det_488273277#3_0" lane="488273277#3_0" pos="23.189999999999998"/>
    <e1Detector file="e1output.xml" freq="60" friendlyPos="x" id="e1det_489105647#3_0" lane="489105647#3_0" pos="200.27"/>
    <e1Detector file="e1output.xml" freq="60" friendlyPos="x" id="e1det_-536237115#4_0" lane="-536237115#4_0" pos="458.4"/>
    <e1Detector file="e1output.xml" freq="60" friendlyPos="x" id="e1det_256666742#0_0" lane="256666742#0_0" pos="434.95"/>
    <e1Detector file="e1output.xml" freq="60" friendlyPos="x" id="e1det_256666750#2_0" lane="256666750#2_0" pos="139.19"/>
    <e1Detector file="e1output.xml" freq="60" friendlyPos="x" id="e1det_536237115#0_0" lane="536237115#0_0" pos="219.38"/>
    <e1Detector file="e1output.xml" freq="60" friendlyPos="x" id="e1det_-540214261#2_0" lane="-540214261#2_0" pos="324.48999999999995"/>
    <e1Detector file="e1output.xml" freq="60" friendlyPos="x" id="e1det_101316643#1_0" lane="101316643#1_0" pos="307.31"/>
    <e1Detector file="e1output.xml" freq="60" friendlyPos="x" id="e1det_556707383#2_0" lane="556707383#2_0" pos="183.92000000000002"/>
    <e1Detector file="e1output.xml" freq="60" friendlyPos="x" id="e1det_-556707386#5_0" lane="-556707386#5_0" pos="30.77"/>
    <e1Detector file="e1output.xml" freq="60" friendlyPos="x" id="e1det_556707386#1_0" lane="556707386#1_0" pos="19.81"/>
    <e1Detector file="e1output.xml" freq="60" friendlyPos="x" id="e1det_563883392#12_0" lane="563883392#12_0" pos="52.51"/>
    <e1Detector file="e1output.xml" freq="60" friendlyPos="x" id="e1det_686238257#9_0" lane="686238257#9_0" pos="48.97"/>
    <e1Detector file="e1output.xml" freq="60" friendlyPos="x" id="e1det_-640221834#1_0" lane="-640221834#1_0" pos="610.09"/>
    <e1Detector file="e1output.xml" freq="60" friendlyPos="x" id="e1det_101315986#3_0" lane="101315986#3_0" pos="14.700000000000001"/>
    <e1Detector file="e1output.xml" freq="60" friendlyPos="x" id="e1det_403142812#0_0" lane="403142812#0_0" pos="309.28999999999996"/>
    <e1Detector file="e1output.xml" freq="60" friendlyPos="x" id="e1det_69347868#6_0" lane="69347868#6_0" pos="11.14"/>
    <e1Detector file="e1output.xml" freq="60" friendlyPos="x" id="e1det_-640221834#7_0" lane="-640221834#7_0" pos="322.10999999999996"/>
    <e1Detector file="e1output.xml" freq="60" friendlyPos="x" id="e1det_-689220805#3_0" lane="-689220805#3_0" pos="373.29999999999995"/>
    <e1Detector file="e1output.xml" freq="60" friendlyPos="x" id="e1det_640221834#0_0" lane="640221834#0_0" pos="609.8299999999999"/>
    <e1Detector file="e1output.xml" freq="60" friendlyPos="x" id="e1det_689220805#0_0" lane="689220805#0_0" pos="58.93"/>
    <e1Detector file="e1output.xml" freq="60" friendlyPos="x" id="e1det_-689220805#5_0" lane="-689220805#5_0" pos="336.12"/>
    <e1Detector file="e1output.xml" freq="60" friendlyPos="x" id="e1det_101316004#0_0" lane="101316004#0_0" pos="219.18"/>
    <e1Detector file="e1output.xml" freq="60" friendlyPos="x" id="e1det_101316004#0_1" lane="101316004#0_1" pos="219.18"/>
    <e1Detector file="e1output.xml" freq="60" friendlyPos="x" id="e1det_182370599#0_0" lane="182370599#0_0" pos="391.12"/>
    <e1Detector file="e1output.xml" freq="60" friendlyPos="x" id="e1det_182370599#0_1" lane="182370599#0_1" pos="391.12"/>
    <e1Detector file="e1output.xml" freq="60" friendlyPos="x" id="e1det_689220805#1_0" lane="689220805#1_0" pos="373.29999999999995"/>
    <e1Detector file="e1output.xml" freq="60" friendlyPos="x" id="e1det_-69347868#5_0" lane="-69347868#5_0" pos="350.29999999999995"/>
    <e1Detector file="e1output.xml" freq="60" friendlyPos="x" id="e1det_208129572_0" lane="208129572_0" pos="483.42999999999995"/>
    <e1Detector file="e1output.xml" freq="60" friendlyPos="x" id="e1det_640220688#3_0" lane="640220688#3_0" pos="259.96999999999997"/>
    <e1Detector file="e1output.xml" freq="60" friendlyPos="x" id="e1det_-778460597#12_0" lane="-778460597#12_0" pos="334.06"/>
    <e1Detector file="e1output.xml" freq="60" friendlyPos="x" id="e1det_208128048#7_0" lane="208128048#7_0" pos="352.62"/>
    <e1Detector file="e1output.xml" freq="60" friendlyPos="x" id="e1det_778460597#6_0" lane="778460597#6_0" pos="246.58"/>
    <e1Detector file="e1output.xml" freq="60" friendlyPos="x" id="e1det_-778460597#14_0" lane="-778460597#14_0" pos="545.47"/>
    <e1Detector file="e1output.xml" freq="60" friendlyPos="x" id="e1det_231901939#1_0" lane="231901939#1_0" pos="226.38"/>
    <e1Detector file="e1output.xml" freq="60" friendlyPos="x" id="e1det_231901939#1_1" lane="231901939#1_1" pos="226.38"/>
    <e1Detector file="e1output.xml" freq="60" friendlyPos="x" id="e1det_231901941#8_0" lane="231901941#8_0" pos="138.32"/>
    <e1Detector file="e1output.xml" freq="60" friendlyPos="x" id="e1det_231901941#8_1" lane="231901941#8_1" pos="138.32"/>
    <e1Detector file="e1output.xml" freq="60" friendlyPos="x" id="e1det_778460597#10_0" lane="778460597#10_0" pos="334.06"/>
    <e1Detector file="e1output.xml" freq="60" friendlyPos="x" id="e1det_-972622983#1_0" lane="-972622983#1_0" pos="371.40999999999997"/>
    <e1Detector file="e1output.xml" freq="60" friendlyPos="x" id="e1det_982037148_0" lane="982037148_0" pos="285.10999999999996"/>
    <e1Detector file="e1output.xml" freq="60" friendlyPos="x" id="e1det_982037153#0_0" lane="982037153#0_0" pos="151.24"/>
    <e1Detector file="e1output.xml" freq="60" friendlyPos="x" id="e1det_982037153#0_1" lane="982037153#0_1" pos="151.24"/>
    <e1Detector file="e1output.xml" freq="60" friendlyPos="x" id="e1det_982037161#0_0" lane="982037161#0_0" pos="237.22"/>
    <e1Detector file="e1output.xml" freq="60" friendlyPos="x" id="e1det_982037161#0_1" lane="982037161#0_1" pos="237.22"/>
    <e1Detector file="e1output.xml" freq="60" friendlyPos="x" id="e1det_101315986#7_0" lane="101315986#7_0" pos="21.22"/>
    <e1Detector file="e1output.xml" freq="60" friendlyPos="x" id="e1det_101316004#2_0" lane="101316004#2_0" pos="521.14"/>
    <e1Detector file="e1output.xml" freq="60" friendlyPos="x" id="e1det_101316004#2_1" lane="101316004#2_1" pos="521.14"/>
    <e1Detector file="e1output.xml" freq="60" friendlyPos="x" id="e1det_1055022187#0_0" lane="1055022187#0_0" pos="40.11"/>
    <e1Detector file="e1output.xml" freq="60" friendlyPos="x" id="e1det_187408909#3_0" lane="187408909#3_0" pos="347.07"/>
    <e1Detector file="e1output.xml" freq="60" friendlyPos="x" id="e1det_187408909#3_1" lane="187408909#3_1" pos="347.07"/>
    <e1Detector file="e1output.xml" freq="60" friendlyPos="x" id="e1det_101316398_0" lane="101316398_0" pos="185.36"/>
    <e1Detector file="e1output.xml" freq="60" friendlyPos="x" id="e1det_232333397_0" lane="232333397_0" pos="187.8"/>
    <e1Detector file="e1output.xml" freq="60" friendlyPos="x" id="e1det_996890881#0_0" lane="996890881#0_0" pos="595.16"/>
    <e1Detector file="e1output.xml" freq="60" friendlyPos="x" id="e1det_996890881#0_1" lane="996890881#0_1" pos="595.16"/>
    <e1Detector file="e1output.xml" freq="60" friendlyPos="x" id="e1det_101316762#14_0" lane="101316762#14_0" pos="48.97"/>
    <e1Detector file="e1output.xml" freq="60" friendlyPos="x" id="e1det_101316762#14_1" lane="101316762#14_1" pos="48.97"/>
    <e1Detector file="e1output.xml" freq="60" friendlyPos="x" id="e1det_1055022196#3_0" lane="1055022196#3_0" pos="68.03"/>
    <e1Detector file="e1output.xml" freq="60" friendlyPos="x" id="e1det_1055022196#3_1" lane="1055022196#3_1" pos="68.03"/>
    <e1Detector file="e1output.xml" freq="60" friendlyPos="x" id="e1det_25603918#2_0" lane="25603918#2_0" pos="73.4"/>
    <e1Detector file="e1output.xml" freq="60" friendlyPos="x" id="e1det_540214247#1_0" lane="540214247#1_0" pos="50.03"/>
    <e1Detector file="e1output.xml" freq="60" friendlyPos="x" id="e1det_101316762#9_0" lane="101316762#9_0" pos="37.23"/>
    <e1Detector file="e1output.xml" freq="60" friendlyPos="x" id="e1det_101316762#9_1" lane="101316762#9_1" pos="37.23"/>
    <e1Detector file="e1output.xml" freq="60" friendlyPos="x" id="e1det_1055022196#8_0" lane="1055022196#8_0" pos="46.6"/>
    <e1Detector file="e1output.xml" freq="60" friendlyPos="x" id="e1det_1055022196#8_1" lane="1055022196#8_1" pos="46.6"/>
    <e1Detector file="e1output.xml" freq="60" friendlyPos="x" id="e1det_239166749#4_0" lane="239166749#4_0" pos="44.96"/>
    <e1Detector file="e1output.xml" freq="60" friendlyPos="x" id="e1det_996007441#3_0" lane="996007441#3_0" pos="53.97"/>
    <e1Detector file="e1output.xml" freq="60" friendlyPos="x" id="e1det_996007441#3_1" lane="996007441#3_1" pos="53.97"/>
    <e1Detector file="e1output.xml" freq="60" friendlyPos="x" id="e1det_1034171531#0_0" lane="1034171531#0_0" pos="37.78"/>
    <e1Detector file="e1output.xml" freq="60" friendlyPos="x" id="e1det_1034171531#0_1" lane="1034171531#0_1" pos="37.78"/>
    <e1Detector file="e1output.xml" freq="60" friendlyPos="x" id="e1det_182370599#4_0" lane="182370599#4_0" pos="229.04"/>
    <e1Detector file="e1output.xml" freq="60" friendlyPos="x" id="e1det_182370599#4_1" lane="182370599#4_1" pos="229.04"/>
    <e1Detector file="e1output.xml" freq="60" friendlyPos="x" id="e1det_255634810#4_0" lane="255634810#4_0" pos="31.4"/>
    <e1Detector file="e1output.xml" freq="60" friendlyPos="x" id="e1det_255634810#4_1" lane="255634810#4_1" pos="31.4"/>
    <e1Detector file="e1output.xml" freq="60" friendlyPos="x" id="e1det_330461433#16_0" lane="330461433#16_0" pos="283.63"/>
    <e1Detector file="e1output.xml" freq="60" friendlyPos="x" id="e1det_330461433#16_1" lane="330461433#16_1" pos="283.63"/>
    <e1Detector file="e1output.xml" freq="60" friendlyPos="x" id="e1det_1050921380#0_0" lane="1050921380#0_0" pos="0.1"/>
    <e1Detector file="e1output.xml" freq="60" friendlyPos="x" id="e1det_374783450#0_0" lane="374783450#0_0" pos="111.25"/>
    <e1Detector file="e1output.xml" freq="60" friendlyPos="x" id="e1det_374783450#0_1" lane="374783450#0_1" pos="111.25"/>
    <e1Detector file="e1output.xml" freq="60" friendlyPos="x" id="e1det_1050921386#0_0" lane="1050921386#0_0" pos="45.93"/>
    <e1Detector file="e1output.xml" freq="60" friendlyPos="x" id="e1det_1050921386#0_1" lane="1050921386#0_1" pos="45.93"/>
    <e1Detector file="e1output.xml" freq="60" friendlyPos="x" id="e1det_1050921386#0_2" lane="1050921386#0_2" pos="45.93"/>
    <e1Detector file="e1output.xml" freq="60" friendlyPos="x" id="e1det_1050921386#0_3" lane="1050921386#0_3" pos="45.93"/>
    <e1Detector file="e1output.xml" freq="60" friendlyPos="x" id="e1det_1050921421#0_0" lane="1050921421#0_0" pos="23.86"/>
    <e1Detector file="e1output.xml" freq="60" friendlyPos="x" id="e1det_1050921421#0_1" lane="1050921421#0_1" pos="23.86"/>
    <e1Detector file="e1output.xml" freq="60" friendlyPos="x" id="e1det_165265404#4_0" lane="165265404#4_0" pos="305.19"/>
    <e1Detector file="e1output.xml" freq="60" friendlyPos="x" id="e1det_165265404#4_1" lane="165265404#4_1" pos="305.19"/>
    <e1Detector file="e1output.xml" freq="60" friendlyPos="x" id="e1det_636236921#0_0" lane="636236921#0_0" pos="310.34"/>
    <e1Detector file="e1output.xml" freq="60" friendlyPos="x" id="e1det_636236921#0_1" lane="636236921#0_1" pos="310.34"/>
    <e1Detector file="e1output.xml" freq="60" friendlyPos="x" id="e1det_636236921#0_2" lane="636236921#0_2" pos="310.34"/>
    <e1Detector file="e1output.xml" freq="60" friendlyPos="x" id="e1det_636236921#0_3" lane="636236921#0_3" pos="310.34"/>
    <e1Detector file="e1output.xml" freq="60" friendlyPos="x" id="e1det_1050921394#1_0" lane="1050921394#1_0" pos="51.85"/>
    <e1Detector file="e1output.xml" freq="60" friendlyPos="x" id="e1det_264306568#2_0" lane="264306568#2_0" pos="55.949999999999996"/>
    <e1Detector file="e1output.xml" freq="60" friendlyPos="x" id="e1det_565480536#0_0" lane="565480536#0_0" pos="23.32"/>
    <e1Detector file="e1output.xml" freq="60" friendlyPos="x" id="e1det_565480546#2_0" lane="565480546#2_0" pos="28.04"/>
    <e1Detector file="e1output.xml" freq="60" friendlyPos="x" id="e1det_1050921423#0_0" lane="1050921423#0_0" pos="18.75"/>
    <e1Detector file="e1output.xml" freq="60" friendlyPos="x" id="e1det_489105658#0_0" lane="489105658#0_0" pos="221.29"/>
    <e1Detector file="e1output.xml" freq="60" friendlyPos="x" id="e1det_489105658#0_1" lane="489105658#0_1" pos="221.29"/>
    <e1Detector file="e1output.xml" freq="60" friendlyPos="x" id="e1det_489105658#0_2" lane="489105658#0_2" pos="221.29"/>
    <e1Detector file="e1output.xml" freq="60" friendlyPos="x" id="e1det_489105658#0_3" lane="489105658#0_3" pos="221.29"/>
    <e1Detector file="e1output.xml" freq="60" friendlyPos="x" id="e1det_636236925#3_0" lane="636236925#3_0" pos="45.21"/>
    <e1Detector file="e1output.xml" freq="60" friendlyPos="x" id="e1det_636236925#3_1" lane="636236925#3_1" pos="45.21"/>
    <e1Detector file="e1output.xml" freq="60" friendlyPos="x" id="e1det_636236925#3_2" lane="636236925#3_2" pos="45.21"/>
    <e1Detector file="e1output.xml" freq="60" friendlyPos="x" id="e1det_636236925#3_3" lane="636236925#3_3" pos="45.21"/>
    <e1Detector file="e1output.xml" freq="60" friendlyPos="x" id="e1det_1050942993#0_0" lane="1050942993#0_0" pos="256.19"/>
    <e1Detector file="e1output.xml" freq="60" friendlyPos="x" id="e1det_1050942993#0_1" lane="1050942993#0_1" pos="256.19"/>
    <e1Detector file="e1output.xml" freq="60" friendlyPos="x" id="e1det_1050942994#0_0" lane="1050942994#0_0" pos="635.99"/>
    <e1Detector file="e1output.xml" freq="60" friendlyPos="x" id="e1det_1050942994#0_1" lane="1050942994#0_1" pos="635.99"/>
    <e1Detector file="e1output.xml" freq="60" friendlyPos="x" id="e1det_894305094#0_0" lane="894305094#0_0" pos="144.19"/>
    <e1Detector file="e1output.xml" freq="60" friendlyPos="x" id="e1det_894305094#0_1" lane="894305094#0_1" pos="144.19"/>
    <e1Detector file="e1output.xml" freq="60" friendlyPos="x" id="e1det_894305094#0_2" lane="894305094#0_2" pos="144.19"/>
    <e1Detector file="e1output.xml" freq="60" friendlyPos="x" id="e1det_894305094#0_3" lane="894305094#0_3" pos="144.19"/>
    <e1Detector file="e1output.xml" freq="60" friendlyPos="x" id="e1det_894305095#1_0" lane="894305095#1_0" pos="447.16999999999996"/>
    <e1Detector file="e1output.xml" freq="60" friendlyPos="x" id="e1det_894305095#1_1" lane="894305095#1_1" pos="447.16999999999996"/>
    <e1Detector file="e1output.xml" freq="60" friendlyPos="x" id="e1det_1050942996#0_0" lane="1050942996#0_0" pos="135.85"/>
    <e1Detector file="e1output.xml" freq="60" friendlyPos="x" id="e1det_1050942996#0_1" lane="1050942996#0_1" pos="135.85"/>
    <e1Detector file="e1output.xml" freq="60" friendlyPos="x" id="e1det_636236963#0_0" lane="636236963#0_0" pos="496.85999999999996"/>
    <e1Detector file="e1output.xml" freq="60" friendlyPos="x" id="e1det_636236963#0_1" lane="636236963#0_1" pos="496.85999999999996"/>
    <e1Detector file="e1output.xml" freq="60" friendlyPos="x" id="e1det_894305094#3_0" lane="894305094#3_0" pos="445.40999999999997"/>
    <e1Detector file="e1output.xml" freq="60" friendlyPos="x" id="e1det_894305094#3_1" lane="894305094#3_1" pos="445.40999999999997"/>
    <e1Detector file="e1output.xml" freq="60" friendlyPos="x" id="e1det_894305094#3_2" lane="894305094#3_2" pos="445.40999999999997"/>
    <e1Detector file="e1output.xml" freq="60" friendlyPos="x" id="e1det_894305094#3_3" lane="894305094#3_3" pos="445.40999999999997"/>
    <e1Detector file="e1output.xml" freq="60" friendlyPos="x" id="e1det_1052247923#2_0" lane="1052247923#2_0" pos="109.94000000000001"/>
    <e1Detector file="e1output.xml" freq="60" friendlyPos="x" id="e1det_1052247923#2_1" lane="1052247923#2_1" pos="109.94000000000001"/>
    <e1Detector file="e1output.xml" freq="60" friendlyPos="x" id="e1det_1052247923#2_2" lane="1052247923#2_2" pos="109.94000000000001"/>
    <e1Detector file="e1output.xml" freq="60" friendlyPos="x" id="e1det_1052673731#2_0" lane="1052673731#2_0" pos="89.99000000000001"/>
    <e1Detector file="e1output.xml" freq="60" friendlyPos="x" id="e1det_1052673731#2_1" lane="1052673731#2_1" pos="89.99000000000001"/>
    <e1Detector file="e1output.xml" freq="60" friendlyPos="x" id="e1det_1052673731#2_2" lane="1052673731#2_2" pos="89.99000000000001"/>
    <e1Detector file="e1output.xml" freq="60" friendlyPos="x" id="e1det_487811125#2_0" lane="487811125#2_0" pos="204.22"/>
    <e1Detector file="e1output.xml" freq="60" friendlyPos="x" id="e1det_487811125#2_1" lane="487811125#2_1" pos="204.22"/>
    <e1Detector file="e1output.xml" freq="60" friendlyPos="x" id="e1det_487811125#2_2" lane="487811125#2_2" pos="204.22"/>
    <e1Detector file="e1output.xml" freq="60" friendlyPos="x" id="e1det_694755300#5_0" lane="694755300#5_0" pos="117.98"/>
    <e1Detector file="e1output.xml" freq="60" friendlyPos="x" id="e1det_694755300#5_1" lane="694755300#5_1" pos="117.98"/>
    <e1Detector file="e1output.xml" freq="60" friendlyPos="x" id="e1det_694755300#5_2" lane="694755300#5_2" pos="117.98"/>
    <e1Detector file="e1output.xml" freq="60" friendlyPos="x" id="e1det_1052673730#0_0" lane="1052673730#0_0" pos="42.11"/>
    <e1Detector file="e1output.xml" freq="60" friendlyPos="x" id="e1det_1052673730#0_1" lane="1052673730#0_1" pos="42.11"/>
    <e1Detector file="e1output.xml" freq="60" friendlyPos="x" id="e1det_1052673732#3_0" lane="1052673732#3_0" pos="23.72"/>
    <e1Detector file="e1output.xml" freq="60" friendlyPos="x" id="e1det_1052673732#3_1" lane="1052673732#3_1" pos="23.72"/>
    <e1Detector file="e1output.xml" freq="60" friendlyPos="x" id="e1det_1052673732#3_2" lane="1052673732#3_2" pos="23.72"/>
    <e1Detector file="e1output.xml" freq="60" friendlyPos="x" id="e1det_328900405#10_0" lane="328900405#10_0" pos="31.619999999999997"/>
    <e1Detector file="e1output.xml" freq="60" friendlyPos="x" id="e1det_328900405#10_1" lane="328900405#10_1" pos="31.619999999999997"/>
    <e1Detector file="e1output.xml" freq="60" friendlyPos="x" id="e1det_328900405#10_2" lane="328900405#10_2" pos="31.619999999999997"/>
    <e1Detector file="e1output.xml" freq="60" friendlyPos="x" id="e1det_488272003#4_0" lane="488272003#4_0" pos="32.9"/>
    <e1Detector file="e1output.xml" freq="60" friendlyPos="x" id="e1det_488272003#4_1" lane="488272003#4_1" pos="32.9"/>
    <e1Detector file="e1output.xml" freq="60" friendlyPos="x" id="e1det_488272003#4_2" lane="488272003#4_2" pos="32.9"/>
    <e1Detector file="e1output.xml" freq="60" friendlyPos="x" id="e1det_1055022192#0_0" lane="1055022192#0_0" pos="319.15999999999997"/>
    <e1Detector file="e1output.xml" freq="60" friendlyPos="x" id="e1det_1055022192#0_1" lane="1055022192#0_1" pos="319.15999999999997"/>
    <e1Detector file="e1output.xml" freq="60" friendlyPos="x" id="e1det_1055022193#2_0" lane="1055022193#2_0" pos="272.28"/>
    <e1Detector file="e1output.xml" freq="60" friendlyPos="x" id="e1det_1055022193#2_1" lane="1055022193#2_1" pos="272.28"/>
    <e1Detector file="e1output.xml" freq="60" friendlyPos="x" id="e1det_1055022193#2_2" lane="1055022193#2_2" pos="272.28"/>
    <e1Detector file="e1output.xml" freq="60" friendlyPos="x" id="e1det_233815054#6_0" lane="233815054#6_0" pos="418.58"/>
    <e1Detector file="e1output.xml" freq="60" friendlyPos="x" id="e1det_233815054#6_1" lane="233815054#6_1" pos="418.58"/>
    <e1Detector file="e1output.xml" freq="60" friendlyPos="x" id="e1det_233815054#6_2" lane="233815054#6_2" pos="418.58"/>
    <e1Detector file="e1output.xml" freq="60" friendlyPos="x" id="e1det_996007440#4_0" lane="996007440#4_0" pos="314.57"/>
    <e1Detector file="e1output.xml" freq="60" friendlyPos="x" id="e1det_996007440#4_1" lane="996007440#4_1" pos="314.57"/>
    <e1Detector file="e1output.xml" freq="60" friendlyPos="x" id="e1det_1055022194#0_0" lane="1055022194#0_0" pos="318.98999999999995"/>
    <e1Detector file="e1output.xml" freq="60" friendlyPos="x" id="e1det_1055022194#0_1" lane="1055022194#0_1" pos="318.98999999999995"/>
    <e1Detector file="e1output.xml" freq="60" friendlyPos="x" id="e1det_233713926#8_0" lane="233713926#8_0" pos="319.02"/>
    <e1Detector file="e1output.xml" freq="60" friendlyPos="x" id="e1det_233713929#1_0" lane="233713929#1_0" pos="330.96"/>
    <e1Detector file="e1output.xml" freq="60" friendlyPos="x" id="e1det_689220805#6_0" lane="689220805#6_0" pos="223.66"/>
    <e1Detector file="e1output.xml" freq="60" friendlyPos="x" id="e1det_1058988267#0_0" lane="1058988267#0_0" pos="22.939999999999998"/>
    <e1Detector file="e1output.xml" freq="60" friendlyPos="x" id="e1det_1058988269#3_0" lane="1058988269#3_0" pos="28.709999999999997"/>
    <e1Detector file="e1output.xml" freq="60" friendlyPos="x" id="e1det_233713926#12_0" lane="233713926#12_0" pos="31.029999999999998"/>
    <e1Detector file="e1output.xml" freq="60" friendlyPos="x" id="e1det_233713930#5_0" lane="233713930#5_0" pos="34.62"/>
    <e1Detector file="e1output.xml" freq="60" friendlyPos="x" id="e1det_1058988267#6_0" lane="1058988267#6_0" pos="47.16"/>
    <e1Detector file="e1output.xml" freq="60" friendlyPos="x" id="e1det_1058988268#0_0" lane="1058988268#0_0" pos="46.92"/>
    <e1Detector file="e1output.xml" freq="60" friendlyPos="x" id="e1det_1058988268#0_1" lane="1058988268#0_1" pos="46.92"/>
    <e1Detector file="e1output.xml" freq="60" friendlyPos="x" id="e1det_1058988268#0_2" lane="1058988268#0_2" pos="46.92"/>
    <e1Detector file="e1output.xml" freq="60" friendlyPos="x" id="e1det_234218185#4_0" lane="234218185#4_0" pos="49.32"/>
    <e1Detector file="e1output.xml" freq="60" friendlyPos="x" id="e1det_580915672#5_0" lane="580915672#5_0" pos="84.61"/>
    <e1Detector file="e1output.xml" freq="60" friendlyPos="x" id="e1det_1075935946#0_0" lane="1075935946#0_0" pos="20.209999999999997"/>
    <e1Detector file="e1output.xml" freq="60" friendlyPos="x" id="e1det_1075935946#0_1" lane="1075935946#0_1" pos="20.209999999999997"/>
    <e1Detector file="e1output.xml" freq="60" friendlyPos="x" id="e1det_1075943105#0_0" lane="1075943105#0_0" pos="5.7"/>