<additional xmlns:xsi="http://www.w3.org/2001/XMLSchema-instance" xsi:noNamespaceSchemaLocation="http://sumo.dlr.de/xsd/additional_file.xsd">
    <laneAreaDetector file="e2output.xml" freq="60" friendlyPos="x" id="-1050942998#1_0" lane="-1050942998#1_0" length="5.4" pos="0"/>
    <laneAreaDetector file="e2output.xml" freq="60" friendlyPos="x" id="1050942994#7_0" lane="1050942994#7_0" length="50" pos="206.06000000000003"/>
    <laneAreaDetector file="e2output.xml" freq="60" friendlyPos="x" id="1050942994#7_1" lane="1050942994#7_1" length="50" pos="206.06000000000003"/>
    <laneAreaDetector file="e2output.xml" freq="60" friendlyPos="x" id="1050942998#0_0" lane="1050942998#0_0" length="50" pos="320.62"/>
    <laneAreaDetector file="e2output.xml" freq="60" friendlyPos="x" id="-107586296#3_0" lane="-107586296#3_0" length="50" pos="82.24000000000001"/>
    <laneAreaDetector file="e2output.xml" freq="60" friendlyPos="x" id="1051576670#0_0" lane="1051576670#0_0" length="50" pos="197.1"/>
    <laneAreaDetector file="e2output.xml" freq="60" friendlyPos="x" id="107586296#0_0" lane="107586296#0_0" length="50" pos="392.85999999999996"/>
    <laneAreaDetector file="e2output.xml" freq="60" friendlyPos="x" id="292313599#0_0" lane="292313599#0_0" length="50" pos="188.47"/>
    <laneAreaDetector file="e2output.xml" freq="60" friendlyPos="x" id="-107586296#5_0" lane="-107586296#5_0" length="50" pos="146.33"/>
    <laneAreaDetector file="e2output.xml" freq="60" friendlyPos="x" id="-107586319#1_0" lane="-107586319#1_0" length="50" pos="197.61"/>
    <laneAreaDetector file="e2output.xml" freq="60" friendlyPos="x" id="107586296#4_0" lane="107586296#4_0" length="50" pos="54.419999999999995"/>
    <laneAreaDetector file="e2output.xml" freq="60" friendlyPos="x" id="107586319#0_0" lane="107586319#0_0" length="50" pos="185.43"/>
    <laneAreaDetector file="e2output.xml" freq="60" friendlyPos="x" id="-208128048#3_0" lane="-208128048#3_0" length="50" pos="57.6"/>
    <laneAreaDetector file="e2output.xml" freq="60" friendlyPos="x" id="-529249851#3_0" lane="-529249851#3_0" length="50" pos="310.84"/>
    <laneAreaDetector file="e2output.xml" freq="60" friendlyPos="x" id="208128048#0_0" lane="208128048#0_0" length="50" pos="275.29999999999995"/>
    <laneAreaDetector file="e2output.xml" freq="60" friendlyPos="x" id="529249851#0_0" lane="529249851#0_0" length="50" pos="283.83"/>
    <laneAreaDetector file="e2output.xml" freq="60" friendlyPos="x" id="-208128048#9_0" lane="-208128048#9_0" length="50" pos="302.62"/>
    <laneAreaDetector file="e2output.xml" freq="60" friendlyPos="x" id="208128048#4_0" lane="208128048#4_0" length="50" pos="167.04"/>
    <laneAreaDetector file="e2output.xml" freq="60" friendlyPos="x" id="208128050#1_0" lane="208128050#1_0" length="50" pos="269.08"/>
    <laneAreaDetector file="e2output.xml" freq="60" friendlyPos="x" id="208128051#6_0" lane="208128051#6_0" length="50" pos="128.84"/>
    <laneAreaDetector file="e2output.xml" freq="60" friendlyPos="x" id="-208128052#11_0" lane="-208128052#11_0" length="50" pos="193.32"/>
    <laneAreaDetector file="e2output.xml" freq="60" friendlyPos="x" id="-778460597#9_0" lane="-778460597#9_0" length="50" pos="196.58"/>
    <laneAreaDetector file="e2output.xml" freq="60" friendlyPos="x" id="208128052#9_0" lane="208128052#9_0" length="50" pos="279.21999999999997"/>
    <laneAreaDetector file="e2output.xml" freq="60" friendlyPos="x" id="778460597#3_0" lane="778460597#3_0" length="50" pos="191.19"/>
    <laneAreaDetector file="e2output.xml" freq="60" friendlyPos="x" id="-208128052#2_0" lane="-208128052#2_0" length="50" pos="102.86000000000001"/>
    <laneAreaDetector file="e2output.xml" freq="60" friendlyPos="x" id="-529249851#4_0" lane="-529249851#4_0" length="50" pos="219.44000000000003"/>
    <laneAreaDetector file="e2output.xml" freq="60" friendlyPos="x" id="208128052#0_0" lane="208128052#0_0" length="50" pos="235.00000000000003"/>
    <laneAreaDetector file="e2output.xml" freq="60" friendlyPos="x" id="529249851#1_0" lane="529249851#1_0" length="50" pos="309.69"/>
    <laneAreaDetector file="e2output.xml" freq="60" friendlyPos="x" id="-208128052#8_0" lane="-208128052#8_0" length="15.75" pos="0"/>
    <laneAreaDetector file="e2output.xml" freq="60" friendlyPos="x" id="208128050#5_0" lane="208128050#5_0" length="32.51" pos="1.4155343563970746e-15"/>
    <laneAreaDetector file="e2output.xml" freq="60" friendlyPos="x" id="208128051#4_0" lane="208128051#4_0" length="34.99" pos="1.4155343563970746e-15"/>
    <laneAreaDetector file="e2output.xml" freq="60" friendlyPos="x" id="208128052#6_0" lane="208128052#6_0" length="26.77" pos="1.4155343563970746e-15"/>
    <laneAreaDetector file="e2output.xml" freq="60" friendlyPos="x" id="-208128055#6_0" lane="-208128055#6_0" length="50" pos="124.45000000000002"/>
    <laneAreaDetector file="e2output.xml" freq="60" friendlyPos="x" id="-529249851#6_0" lane="-529249851#6_0" length="50" pos="173.41"/>
    <laneAreaDetector file="e2output.xml" freq="60" friendlyPos="x" id="208128055#2_0" lane="208128055#2_0" length="50" pos="68.54"/>
    <laneAreaDetector file="e2output.xml" freq="60" friendlyPos="x" id="529249851#4_0" lane="529249851#4_0" length="50" pos="219.07000000000002"/>
    <laneAreaDetector file="e2output.xml" freq="60" friendlyPos="x" id="-219961340#4_0" lane="-219961340#4_0" length="50" pos="419.77"/>
    <laneAreaDetector file="e2output.xml" freq="60" friendlyPos="x" id="-689220805#6_0" lane="-689220805#6_0" length="50" pos="173.63"/>
    <laneAreaDetector file="e2output.xml" freq="60" friendlyPos="x" id="219961340#0_0" lane="219961340#0_0" length="50" pos="339.33"/>
    <laneAreaDetector file="e2output.xml" freq="60" friendlyPos="x" id="689220805#5_0" lane="689220805#5_0" length="50" pos="286.47999999999996"/>
    <laneAreaDetector file="e2output.xml" freq="60" friendlyPos="x" id="-219961340#7_0" lane="-219961340#7_0" length="50" pos="275.39"/>
    <laneAreaDetector file="e2output.xml" freq="60" friendlyPos="x" id="219961340#3_0" lane="219961340#3_0" length="50" pos="418.88"/>
    <laneAreaDetector file="e2output.xml" freq="60" friendlyPos="x" id="636236927#1_0" lane="636236927#1_0" length="50" pos="299.69"/>
    <laneAreaDetector file="e2output.xml" freq="60" friendlyPos="x" id="636236957#2_0" lane="636236957#2_0" length="44.92" pos="1.4155343563970746e-15"/>
    <laneAreaDetector file="e2output.xml" freq="60" friendlyPos="x" id="-226526602#4_0" lane="-226526602#4_0" length="50" pos="366.26"/>
    <laneAreaDetector file="e2output.xml" freq="60" friendlyPos="x" id="226526602#0_0" lane="226526602#0_0" length="50" pos="289.22999999999996"/>
    <laneAreaDetector file="e2output.xml" freq="60" friendlyPos="x" id="237904516#5_0" lane="237904516#5_0" length="50" pos="313.72999999999996"/>
    <laneAreaDetector file="e2output.xml" freq="60" friendlyPos="x" id="264955006#1_0" lane="264955006#1_0" length="6.28" pos="0"/>
    <laneAreaDetector file="e2output.xml" freq="60" friendlyPos="x" id="-488882755#4_0" lane="-488882755#4_0" length="50" pos="265.09999999999997"/>
    <laneAreaDetector file="e2output.xml" freq="60" friendlyPos="x" id="-533894266#3_0" lane="-533894266#3_0" length="50" pos="450.71999999999997"/>
    <laneAreaDetector file="e2output.xml" freq="60" friendlyPos="x" id="488882755#2_0" lane="488882755#2_0" length="46.089999999999996" pos="1.4155343563970746e-15"/>
    <laneAreaDetector file="e2output.xml" freq="60" friendlyPos="x" id="488882769#1_0" lane="488882769#1_0" length="50" pos="116.88"/>
    <laneAreaDetector file="e2output.xml" freq="60" friendlyPos="x" id="-489105647#2_0" lane="-489105647#2_0" length="50" pos="151.0"/>
    <laneAreaDetector file="e2output.xml" freq="60" friendlyPos="x" id="-529249851#0_0" lane="-529249851#0_0" length="50" pos="283.34"/>
    <laneAreaDetector file="e2output.xml" freq="60" friendlyPos="x" id="231901939#6_0" lane="231901939#6_0" length="50" pos="345.59999999999997"/>
    <laneAreaDetector file="e2output.xml" freq="60" friendlyPos="x" id="231901939#6_1" lane="231901939#6_1" length="50" pos="345.59999999999997"/>
    <laneAreaDetector file="e2output.xml" freq="60" friendlyPos="x" id="231901941#1_0" lane="231901941#1_0" length="50" pos="31.580000000000005"/>
    <laneAreaDetector file="e2output.xml" freq="60" friendlyPos="x" id="231901941#1_1" lane="231901941#1_1" length="50" pos="31.580000000000005"/>
    <laneAreaDetector file="e2output.xml" freq="60" friendlyPos="x" id="-51191097#2_0" lane="-51191097#2_0" length="50" pos="82.77000000000001"/>
    <laneAreaDetector file="e2output.xml" freq="60" friendlyPos="x" id="264955661#1_0" lane="264955661#1_0" length="50" pos="369.62"/>
    <laneAreaDetector file="e2output.xml" freq="60" friendlyPos="x" id="51191097#0_0" lane="51191097#0_0" length="50" pos="396.53"/>
    <laneAreaDetector file="e2output.xml" freq="60" friendlyPos="x" id="-533679822#6_0" lane="-533679822#6_0" length="50" pos="182.98000000000002"/>
    <laneAreaDetector file="e2output.xml" freq="60" friendlyPos="x" id="-533894266#1_0" lane="-533894266#1_0" length="50" pos="251.37000000000003"/>
    <laneAreaDetector file="e2output.xml" freq="60" friendlyPos="x" id="488273277#3_0" lane="488273277#3_0" length="23.189999999999998" pos="1.4155343563970746e-15"/>
    <laneAreaDetector file="e2output.xml" freq="60" friendlyPos="x" id="489105647#3_0" lane="489105647#3_0" length="50" pos="150.27"/>
    <laneAreaDetector file="e2output.xml" freq="60" friendlyPos="x" id="-536237115#4_0" lane="-536237115#4_0" length="50" pos="408.4"/>
    <laneAreaDetector file="e2output.xml" freq="60" friendlyPos="x" id="256666742#0_0" lane="256666742#0_0" length="50" pos="384.95"/>
    <laneAreaDetector file="e2output.xml" freq="60" friendlyPos="x" id="256666750#2_0" lane="256666750#2_0" length="50" pos="89.19"/>
    <laneAreaDetector file="e2output.xml" freq="60" friendlyPos="x" id="536237115#0_0" lane="536237115#0_0" length="50" pos="169.38"/>
    <laneAreaDetector file="e2output.xml" freq="60" friendlyPos="x" id="-540214261#2_0" lane="-540214261#2_0" length="50" pos="274.48999999999995"/>
    <laneAreaDetector file="e2output.xml" freq="60" friendlyPos="x" id="101316643#1_0" lane="101316643#1_0" length="50" pos="257.31"/>
    <laneAreaDetector file="e2output.xml" freq="60" friendlyPos="x" id="556707383#2_0" lane="556707383#2_0" length="50" pos="133.92000000000002"/>
    <laneAreaDetector file="e2output.xml" freq="60" friendlyPos="x" id="-556707386#5_0" lane="-556707386#5_0" length="30.77" pos="1.4155343563970746e-15"/>
    <laneAreaDetector file="e2output.xml" freq="60" friendlyPos="x" id="556707386#1_0" lane="556707386#1_0" length="19.81" pos="1.4155343563970746e-15"/>
    <laneAreaDetector file="e2output.xml" freq="60" friendlyPos="x" id="563883392#12_0" lane="563883392#12_0" length="50" pos="2.5099999999999993"/>
    <laneAreaDetector file="e2output.xml" freq="60" friendlyPos="x" id="686238257#9_0" lane="686238257#9_0" length="48.97" pos="1.4155343563970746e-15"/>
    <laneAreaDetector file="e2output.xml" freq="60" friendlyPos="x" id="-640221834#1_0" lane="-640221834#1_0" length="50" pos="560.09"/>
    <laneAreaDetector file="e2output.xml" freq="60" friendlyPos="x" id="101315986#3_0" lane="101315986#3_0" length="14.700000000000001" pos="0"/>
    <laneAreaDetector file="e2output.xml" freq="60" friendlyPos="x" id="403142812#0_0" lane="403142812#0_0" length="50" pos="259.28999999999996"/>
    <laneAreaDetector file="e2output.xml" freq="60" friendlyPos="x" id="69347868#6_0" lane="69347868#6_0" length="11.14" pos="0"/>
    <laneAreaDetector file="e2output.xml" freq="60" friendlyPos="x" id="-640221834#7_0" lane="-640221834#7_0" length="50" pos="272.10999999999996"/>
    <laneAreaDetector file="e2output.xml" freq="60" friendlyPos="x" id="-689220805#3_0" lane="-689220805#3_0" length="50" pos="323.29999999999995"/>
    <laneAreaDetector file="e2output.xml" freq="60" friendlyPos="x" id="640221834#0_0" lane="640221834#0_0" length="50" pos="559.8299999999999"/>
    <laneAreaDetector file="e2output.xml" freq="60" friendlyPos="x" id="689220805#0_0" lane="689220805#0_0" length="50" pos="8.930000000000001"/>
    <laneAreaDetector file="e2output.xml" freq="60" friendlyPos="x" id="-689220805#5_0" lane="-689220805#5_0" length="50" pos="286.12"/>
    <laneAreaDetector file="e2output.xml" freq="60" friendlyPos="x" id="101316004#0_0" lane="101316004#0_0" length="50" pos="169.18"/>
    <laneAreaDetector file="e2output.xml" freq="60" friendlyPos="x" id="101316004#0_1" lane="101316004#0_1" length="50" pos="169.18"/>
    <laneAreaDetector file="e2output.xml" freq="60" friendlyPos="x" id="182370599#0_0" lane="182370599#0_0" length="50" pos="341.12"/>
    <laneAreaDetector file="e2output.xml" freq="60" friendlyPos="x" id="182370599#0_1" lane="182370599#0_1" length="50" pos="341.12"/>
    <laneAreaDetector file="e2output.xml" freq="60" friendlyPos="x" id="689220805#1_0" lane="689220805#1_0" length="50" pos="323.29999999999995"/>
    <laneAreaDetector file="e2output.xml" freq="60" friendlyPos="x" id="-69347868#5_0" lane="-69347868#5_0" length="50" pos="300.29999999999995"/>
    <laneAreaDetector file="e2output.xml" freq="60" friendlyPos="x" id="208129572_0" lane="208129572_0" length="50" pos="433.42999999999995"/>
    <laneAreaDetector file="e2output.xml" freq="60" friendlyPos="x" id="640220688#3_0" lane="640220688#3_0" length="50" pos="209.97"/>
    <laneAreaDetector file="e2output.xml" freq="60" friendlyPos="x" id="-778460597#12_0" lane="-778460597#12_0" length="50" pos="284.06"/>
    <laneAreaDetector file="e2output.xml" freq="60" friendlyPos="x" id="208128048#7_0" lane="208128048#7_0" length="50" pos="302.62"/>
    <laneAreaDetector file="e2output.xml" freq="60" friendlyPos="x" id="778460597#6_0" lane="778460597#6_0" length="50" pos="196.58"/>
    <laneAreaDetector file="e2output.xml" freq="60" friendlyPos="x" id="-778460597#14_0" lane="-778460597#14_0" length="50" pos="495.47"/>
    <laneAreaDetector file="e2output.xml" freq="60" friendlyPos="x" id="231901939#1_0" lane="231901939#1_0" length="50" pos="176.38"/>
    <laneAreaDetector file="e2output.xml" freq="60" friendlyPos="x" id="231901939#1_1" lane="231901939#1_1" length="50" pos="176.38"/>
    <laneAreaDetector file="e2output.xml" freq="60" friendlyPos="x" id="231901941#8_0" lane="231901941#8_0" length="50" pos="88.32"/>
    <laneAreaDetector file="e2output.xml" freq="60" friendlyPos="x" id="231901941#8_1" lane="231901941#8_1" length="50" pos="88.32"/>
    <laneAreaDetector file="e2output.xml" freq="60" friendlyPos="x" id="778460597#10_0" lane="778460597#10_0" length="50" pos="284.06"/>
    <laneAreaDetector file="e2output.xml" freq="60" friendlyPos="x" id="-972622983#1_0" lane="-972622983#1_0" length="50" pos="321.40999999999997"/>
    <laneAreaDetector file="e2output.xml" freq="60" friendlyPos="x" id="982037148_0" lane="982037148_0" length="50" pos="235.10999999999999"/>
    <laneAreaDetector file="e2output.xml" freq="60" friendlyPos="x" id="982037153#0_0" lane="982037153#0_0" length="50" pos="101.24000000000001"/>
    <laneAreaDetector file="e2output.xml" freq="60" friendlyPos="x" id="982037153#0_1" lane="982037153#0_1" length="50" pos="101.24000000000001"/>
    <laneAreaDetector file="e2output.xml" freq="60" friendlyPos="x" id="982037161#0_0" lane="982037161#0_0" length="50" pos="187.22"/>
    <laneAreaDetector file="e2output.xml" freq="60" friendlyPos="x" id="982037161#0_1" lane="982037161#0_1" length="50" pos="187.22"/>
    <laneAreaDetector file="e2output.xml" freq="60" friendlyPos="x" id="101315986#7_0" lane="101315986#7_0" length="21.22" pos="1.4155343563970746e-15"/>
    <laneAreaDetector file="e2output.xml" freq="60" friendlyPos="x" id="101316004#2_0" lane="101316004#2_0" length="50" pos="471.14"/>
    <laneAreaDetector file="e2output.xml" freq="60" friendlyPos="x" id="101316004#2_1" lane="101316004#2_1" length="50" pos="471.14"/>
    <laneAreaDetector file="e2output.xml" freq="60" friendlyPos="x" id="1055022187#0_0" lane="1055022187#0_0" length="40.11" pos="1.4155343563970746e-15"/>
    <laneAreaDetector file="e2output.xml" freq="60" friendlyPos="x" id="187408909#3_0" lane="187408909#3_0" length="50" pos="297.07"/>
    <laneAreaDetector file="e2output.xml" freq="60" friendlyPos="x" id="187408909#3_1" lane="187408909#3_1" length="50" pos="297.07"/>
    <laneAreaDetector file="e2output.xml" freq="60" friendlyPos="x" id="101316398_0" lane="101316398_0" length="50" pos="135.36"/>
    <laneAreaDetector file="e2output.xml" freq="60" friendlyPos="x" id="232333397_0" lane="232333397_0" length="50" pos="137.8"/>
    <laneAreaDetector file="e2output.xml" freq="60" friendlyPos="x" id="996890881#0_0" lane="996890881#0_0" length="50" pos="545.16"/>
    <laneAreaDetector file="e2output.xml" freq="60" friendlyPos="x" id="996890881#0_1" lane="996890881#0_1" length="50" pos="545.16"/>
    <laneAreaDetector file="e2output.xml" freq="60" friendlyPos="x" id="101316762#14_0" lane="101316762#14_0" length="48.97" pos="1.4155343563970746e-15"/>
    <laneAreaDetector file="e2output.xml" freq="60" friendlyPos="x" id="101316762#14_1" lane="101316762#14_1" length="48.97" pos="1.4155343563970746e-15"/>
    <laneAreaDetector file="e2output.xml" freq="60" friendlyPos="x" id="1055022196#3_0" lane="1055022196#3_0" length="50" pos="18.029999999999994"/>
    <laneAreaDetector file="e2output.xml" freq="60" friendlyPos="x" id="1055022196#3_1" lane="1055022196#3_1" length="50" pos="18.029999999999994"/>
    <laneAreaDetector file="e2output.xml" freq="60" friendlyPos="x" id="25603918#2_0" lane="25603918#2_0" length="50" pos="23.4"/>
    <laneAreaDetector file="e2output.xml" freq="60" friendlyPos="x" id="540214247#1_0" lane="540214247#1_0" length="50" pos="0.030000000000002552"/>
    <laneAreaDetector file="e2output.xml" freq="60" friendlyPos="x" id="101316762#9_0" lane="101316762#9_0" length="37.23" pos="1.4155343563970746e-15"/>
    <laneAreaDetector file="e2output.xml" freq="60" friendlyPos="x" id="101316762#9_1" lane="101316762#9_1" length="37.23" pos="1.4155343563970746e-15"/>
    <laneAreaDetector file="e2output.xml" freq="60" friendlyPos="x" id="1055022196#8_0" lane="1055022196#8_0" length="46.6" pos="1.4155343563970746e-15"/>
    <laneAreaDetector file="e2output.xml" freq="60" friendlyPos="x" id="1055022196#8_1" lane="1055022196#8_1" length="46.6" pos="1.4155343563970746e-15"/>
    <laneAreaDetector file="e2output.xml" freq="60" friendlyPos="x" id="239166749#4_0" lane="239166749#4_0" length="44.96" pos="1.4155343563970746e-15"/>
    <laneAreaDetector file="e2output.xml" freq="60" friendlyPos="x" id="996007441#3_0" lane="996007441#3_0" length="50" pos="3.97"/>
    <laneAreaDetector file="e2output.xml" freq="60" friendlyPos="x" id="996007441#3_1" lane="996007441#3_1" length="50" pos="3.97"/>
    <laneAreaDetector file="e2output.xml" freq="60" friendlyPos="x" id="1034171531#0_0" lane="1034171531#0_0" length="37.78" pos="1.4155343563970746e-15"/>
    <laneAreaDetector file="e2output.xml" freq="60" friendlyPos="x" id="1034171531#0_1" lane="1034171531#0_1" length="37.78" pos="1.4155343563970746e-15"/>
    <laneAreaDetector file="e2output.xml" freq="60" friendlyPos="x" id="182370599#4_0" lane="182370599#4_0" length="50" pos="179.04"/>
    <laneAreaDetector file="e2output.xml" freq="60" friendlyPos="x" id="182370599#4_1" lane="182370599#4_1" length="50" pos="179.04"/>
    <laneAreaDetector file="e2output.xml" freq="60" friendlyPos="x" id="255634810#4_0" lane="255634810#4_0" length="31.4" pos="1.4155343563970746e-15"/>
    <laneAreaDetector file="e2output.xml" freq="60" friendlyPos="x" id="255634810#4_1" lane="255634810#4_1" length="31.4" pos="1.4155343563970746e-15"/>
    <laneAreaDetector file="e2output.xml" freq="60" friendlyPos="x" id="330461433#16_0" lane="330461433#16_0" length="50" pos="233.63000000000002"/>
    <laneAreaDetector file="e2output.xml" freq="60" friendlyPos="x" id="330461433#16_1" lane="330461433#16_1" length="50" pos="233.63000000000002"/>
    <laneAreaDetector file="e2output.xml" freq="60" friendlyPos="x" id="1050921380#0_0" lane="1050921380#0_0" length="0.1" pos="0"/>
    <laneAreaDetector file="e2output.xml" freq="60" friendlyPos="x" id="374783450#0_0" lane="374783450#0_0" length="50" pos="61.24999999999999"/>
    <laneAreaDetector file="e2output.xml" freq="60" friendlyPos="x" id="374783450#0_1" lane="374783450#0_1" length="50" pos="61.24999999999999"/>
    <laneAreaDetector file="e2output.xml" freq="60" friendlyPos="x" id="1050921386#0_0" lane="1050921386#0_0" length="45.93" pos="1.4155343563970746e-15"/>
    <laneAreaDetector file="e2output.xml" freq="60" friendlyPos="x" id="1050921386#0_1" lane="1050921386#0_1" length="45.93" pos="1.4155343563970746e-15"/>
    <laneAreaDetector file="e2output.xml" freq="60" friendlyPos="x" id="1050921386#0_2" lane="1050921386#0_2" length="45.93" pos="1.4155343563970746e-15"/>
    <laneAreaDetector file="e2output.xml" freq="60" friendlyPos="x" id="1050921386#0_3" lane="1050921386#0_3" length="45.93" pos="1.4155343563970746e-15"/>
    <laneAreaDetector file="e2output.xml" freq="60" friendlyPos="x" id="1050921421#0_0" lane="1050921421#0_0" length="23.86" pos="1.4155343563970746e-15"/>
    <laneAreaDetector file="e2output.xml" freq="60" friendlyPos="x" id="1050921421#0_1" lane="1050921421#0_1" length="23.86" pos="1.4155343563970746e-15"/>
    <laneAreaDetector file="e2output.xml" freq="60" friendlyPos="x" id="165265404#4_0" lane="165265404#4_0" length="50" pos="255.19000000000003"/>
    <laneAreaDetector file="e2output.xml" freq="60" friendlyPos="x" id="165265404#4_1" lane="165265404#4_1" length="50" pos="255.19000000000003"/>
    <laneAreaDetector file="e2output.xml" freq="60" friendlyPos="x" id="636236921#0_0" lane="636236921#0_0" length="50" pos="260.34"/>
    <laneAreaDetector file="e2output.xml" freq="60" friendlyPos="x" id="636236921#0_1" lane="636236921#0_1" length="50" pos="260.34"/>
    <laneAreaDetector file="e2output.xml" freq="60" friendlyPos="x" id="636236921#0_2" lane="636236921#0_2" length="50" pos="260.34"/>
    <laneAreaDetector file="e2output.xml" freq="60" friendlyPos="x" id="636236921#0_3" lane="636236921#0_3" length="50" pos="260.34"/>
    <laneAreaDetector file="e2output.xml" freq="60" friendlyPos="x" id="1050921394#1_0" lane="1050921394#1_0" length="50" pos="1.8500000000000028"/>
    <laneAreaDetector file="e2output.xml" freq="60" friendlyPos="x" id="264306568#2_0" lane="264306568#2_0" length="50" pos="5.9499999999999975"/>
    <laneAreaDetector file="e2output.xml" freq="60" friendlyPos="x" id="565480536#0_0" lane="565480536#0_0" length="23.32" pos="1.4155343563970746e-15"/>
    <laneAreaDetector file="e2output.xml" freq="60" friendlyPos="x" id="565480546#2_0" lane="565480546#2_0" length="28.04" pos="1.4155343563970746e-15"/>
    <laneAreaDetector file="e2output.xml" freq="60" friendlyPos="x" id="1050921423#0_0" lane="1050921423#0_0" length="18.75" pos="1.4155343563970746e-15"/>
    <laneAreaDetector file="e2output.xml" freq="60" friendlyPos="x" id="489105658#0_0" lane="489105658#0_0" length="50" pos="171.29"/>
    <laneAreaDetector file="e2output.xml" freq="60" friendlyPos="x" id="489105658#0_1" lane="489105658#0_1" length="50" pos="171.29"/>
    <laneAreaDetector file="e2output.xml" freq="60" friendlyPos="x" id="489105658#0_2" lane="489105658#0_2" length="50" pos="171.29"/>
    <laneAreaDetector file="e2output.xml" freq="60" friendlyPos="x" id="489105658#0_3" lane="489105658#0_3" length="50" pos="171.29"/>
    <laneAreaDetector file="e2output.xml" freq="60" friendlyPos="x" id="636236925#3_0" lane="636236925#3_0" length="45.21" pos="1.4155343563970746e-15"/>
    <laneAreaDetector file="e2output.xml" freq="60" friendlyPos="x" id="636236925#3_1" lane="636236925#3_1" length="45.21" pos="1.4155343563970746e-15"/>
    <laneAreaDetector file="e2output.xml" freq="60" friendlyPos="x" id="636236925#3_2" lane="636236925#3_2" length="45.21" pos="1.4155343563970746e-15"/>
    <laneAreaDetector file="e2output.xml" freq="60" friendlyPos="x" id="636236925#3_3" lane="636236925#3_3" length="45.21" pos="1.4155343563970746e-15"/>
    <laneAreaDetector file="e2output.xml" freq="60" friendlyPos="x" id="1050942993#0_0" lane="1050942993#0_0" length="50" pos="206.19000000000003"/>
    <laneAreaDetector file="e2output.xml" freq="60" friendlyPos="x" id="1050942993#0_1" lane="1050942993#0_1" length="50" pos="206.19000000000003"/>
    <laneAreaDetector file="e2output.xml" freq="60" friendlyPos="x" id="1050942994#0_0" lane="1050942994#0_0" length="50" pos="585.99"/>
    <laneAreaDetector file="e2output.xml" freq="60" friendlyPos="x" id="1050942994#0_1" lane="1050942994#0_1" length="50" pos="585.99"/>
    <laneAreaDetector file="e2output.xml" freq="60" friendlyPos="x" id="894305094#0_0" lane="894305094#0_0" length="50" pos="94.19"/>
    <laneAreaDetector file="e2output.xml" freq="60" friendlyPos="x" id="894305094#0_1" lane="894305094#0_1" length="50" pos="94.19"/>
    <laneAreaDetector file="e2output.xml" freq="60" friendlyPos="x" id="894305094#0_2" lane="894305094#0_2" length="50" pos="94.19"/>
    <laneAreaDetector file="e2output.xml" freq="60" friendlyPos="x" id="894305094#0_3" lane="894305094#0_3" length="50" pos="94.19"/>
    <laneAreaDetector file="e2output.xml" freq="60" friendlyPos="x" id="894305095#1_0" lane="894305095#1_0" length="50" pos="397.16999999999996"/>
    <laneAreaDetector file="e2output.xml" freq="60" friendlyPos="x" id="894305095#1_1" lane="894305095#1_1" length="50" pos="397.16999999999996"/>
    <laneAreaDetector file="e2output.xml" freq="60" friendlyPos="x" id="1050942996#0_0" lane="1050942996#0_0" length="50" pos="85.85"/>
    <laneAreaDetector file="e2output.xml" freq="60" friendlyPos="x" id="1050942996#0_1" lane="1050942996#0_1" length="50" pos="85.85"/>
    <laneAreaDetector file="e2output.xml" freq="60" friendlyPos="x" id="636236963#0_0" lane="636236963#0_0" length="50" pos="446.85999999999996"/>
    <laneAreaDetector file="e2output.xml" freq="60" friendlyPos="x" id="636236963#0_1" lane="636236963#0_1" length="50" pos="446.85999999999996"/>
    <laneAreaDetector file="e2output.xml" freq="60" friendlyPos="x" id="894305094#3_0" lane="894305094#3_0" length="50" pos="395.40999999999997"/>
    <laneAreaDetector file="e2output.xml" freq="60" friendlyPos="x" id="894305094#3_1" lane="894305094#3_1" length="50" pos="395.40999999999997"/>
    <laneAreaDetector file="e2output.xml" freq="60" friendlyPos="x" id="894305094#3_2" lane="894305094#3_2" length="50" pos="395.40999999999997"/>
    <laneAreaDetector file="e2output.xml" freq="60" friendlyPos="x" id="894305094#3_3" lane="894305094#3_3" length="50" pos="395.40999999999997"/>
    <laneAreaDetector file="e2output.xml" freq="60" friendlyPos="x" id="1052247923#2_0" lane="1052247923#2_0" length="50" pos="59.940000000000005"/>
    <laneAreaDetector file="e2output.xml" freq="60" friendlyPos="x" id="1052247923#2_1" lane="1052247923#2_1" length="50" pos="59.940000000000005"/>
    <laneAreaDetector file="e2output.xml" freq="60" friendlyPos="x" id="1052247923#2_2" lane="1052247923#2_2" length="50" pos="59.940000000000005"/>
    <laneAreaDetector file="e2output.xml" freq="60" friendlyPos="x" id="1052673731#2_0" lane="1052673731#2_0" length="50" pos="39.99"/>
    <laneAreaDetector file="e2output.xml" freq="60" friendlyPos="x" id="1052673731#2_1" lane="1052673731#2_1" length="50" pos="39.99"/>
    <laneAreaDetector file="e2output.xml" freq="60" friendlyPos="x" id="1052673731#2_2" lane="1052673731#2_2" length="50" pos="39.99"/>
    <laneAreaDetector file="e2output.xml" freq="60" friendlyPos="x" id="487811125#2_0" lane="487811125#2_0" length="50" pos="154.22"/>
    <laneAreaDetector file="e2output.xml" freq="60" friendlyPos="x" id="487811125#2_1" lane="487811125#2_1" length="50" pos="154.22"/>
    <laneAreaDetector file="e2output.xml" freq="60" friendlyPos="x" id="487811125#2_2" lane="487811125#2_2" length="50" pos="154.22"/>
    <laneAreaDetector file="e2output.xml" freq="60" friendlyPos="x" id="694755300#5_0" lane="694755300#5_0" length="50" pos="67.98"/>
    <laneAreaDetector file="e2output.xml" freq="60" friendlyPos="x" id="694755300#5_1" lane="694755300#5_1" length="50" pos="67.98"/>
    <laneAreaDetector file="e2output.xml" freq="60" friendlyPos="x" id="694755300#5_2" lane="694755300#5_2" length="50" pos="67.98"/>
    <laneAreaDetector file="e2output.xml" freq="60" friendlyPos="x" id="1052673730#0_0" lane="1052673730#0_0" length="42.11" pos="1.4155343563970746e-15"/>
    <laneAreaDetector file="e2output.xml" freq="60" friendlyPos="x" id="1052673730#0_1" lane="1052673730#0_1" length="42.11" pos="1.4155343563970746e-15"/>
    <laneAreaDetector file="e2output.xml" freq="60" friendlyPos="x" id="1052673732#3_0" lane="1052673732#3_0" length="23.72" pos="1.4155343563970746e-15"/>
    <laneAreaDetector file="e2output.xml" freq="60" friendlyPos="x" id="1052673732#3_1" lane="1052673732#3_1" length="23.72" pos="1.4155343563970746e-15"/>
    <laneAreaDetector file="e2output.xml" freq="60" friendlyPos="x" id="1052673732#3_2" lane="1052673732#3_2" length="23.72" pos="1.4155343563970746e-15"/>
    <laneAreaDetector file="e2output.xml" freq="60" friendlyPos="x" id="328900405#10_0" lane="328900405#10_0" length="31.619999999999997" pos="1.4155343563970746e-15"/>
    <laneAreaDetector file="e2output.xml" freq="60" friendlyPos="x" id="328900405#10_1" lane="328900405#10_1" length="31.619999999999997" pos="1.4155343563970746e-15"/>
    <laneAreaDetector file="e2output.xml" freq="60" friendlyPos="x" id="328900405#10_2" lane="328900405#10_2" length="31.619999999999997" pos="1.4155343563970746e-15"/>
    <laneAreaDetector file="e2output.xml" freq="60" friendlyPos="x" id="488272003#4_0" lane="488272003#4_0" length="32.9" pos="1.4155343563970746e-15"/>
    <laneAreaDetector file="e2output.xml" freq="60" friendlyPos="x" id="488272003#4_1" lane="488272003#4_1" length="32.9" pos="1.4155343563970746e-15"/>