<?xml version="1.0" encoding="UTF-8"?>

<!-- generated on 2022-07-11 17:14:31 by Eclipse SUMO polyconvert Version 1.13.0
<configuration xmlns:xsi="http://www.w3.org/2001/XMLSchema-instance" xsi:noNamespaceSchemaLocation="http://sumo.dlr.de/xsd/polyconvertConfiguration.xsd">

    <input>
        <net-file value="osm.net.xml"/>
        <osm-files value="osm_bbox.osm.xml.gz"/>
        <osm.keep-full-type value="true"/>
        <type-file value="/usr/local/opt/sumo/share/sumo/data/typemap/osmPolyconvert.typ.xml"/>
    </input>

    <output>
        <output-file value="osm.poly.xml"/>
    </output>

    <processing>
        <poi-layer-offset value="5"/>
    </processing>

    <report>
        <verbose value="true"/>
    </report>

</configuration>
-->

<additional xmlns:xsi="http://www.w3.org/2001/XMLSchema-instance" xsi:noNamespaceSchemaLocation="http://sumo.dlr.de/xsd/additional_file.xsd">
    <location netOffset="-795994.49,-2489746.86" convBoundary="-0.00,0.00,7761.29,10191.22" origBoundary="113.878468,22.487456,113.953508,22.579667" projParameter="+proj=utm +zone=49 +ellps=WGS84 +datum=WGS84 +units=m +no_defs"/>

    <poly id="1006938313" type="amenity.bus_station" color="237,199,199" fill="1" layer="-1.00" shape="3162.512169,6476.741596 3164.273763,6340.867705 3215.359698,6341.940570 3211.970591,6480.476141 3162.512169,6476.741596"/>
    <poly id="1009536338" type="building.retail" color="255,230,230" fill="1" layer="-1.00" shape="1613.868166,5065.419440 1649.282842,5074.140984 1666.044068,5076.316630 1679.301855,5077.038980 1697.293930,5076.268121 1708.030553,5075.855464 1713.954651,5075.659906 1719.462333,5075.700121 1724.162920,5075.946369 1729.343383,5076.401421 1734.266967,5076.829330 1739.116142,5077.377718 1742.725528,5077.613911 1746.031083,5077.589297 1748.814090,5077.432638 1751.424275,5077.161796 1754.367894,5076.686828 1758.215533,5075.786037 1763.751773,5074.352710 1769.138138,5072.683726 1777.351932,5069.628679 1786.126039,5065.819730 1791.808326,5063.757481 1797.479449,5062.271361 1803.680607,5061.593531 1809.971375,5061.604621 1815.810753,5062.593399 1826.846627,5065.866359 1834.962281,5068.406627 1840.141840,5070.502064 1846.439150,5073.893776 1851.676346,5077.264942 1857.859955,5082.272654 1862.822441,5086.536266 1868.523129,5092.554308 1873.023691,5098.338499 1875.531423,5103.352544 1877.093317,5108.824846 1877.572781,5114.896843 1877.567628,5121.535789 1877.009397,5137.053019 1873.150092,5140.680105 1869.290789,5144.307193 1868.823813,5156.179704 1828.610381,5154.945740 1828.521717,5158.457505 1775.986301,5157.095672 1776.067866,5153.949528 1756.217500,5153.387498 1756.612709,5127.149339 1747.505102,5126.917430 1734.270716,5126.583392 1733.749488,5151.888088 1690.444749,5150.783005 1690.476576,5146.483212 1682.120321,5146.265896 1681.956359,5153.134509 1619.847881,5151.654246 1620.144210,5139.013684 1593.688351,5138.213085 1595.464558,5099.665746 1598.024662,5092.411290 1602.471772,5094.049116 1613.868166,5065.419440"/>
    <poly id="1009536338#1" type="shop.mall" color="237,199,255" fill="1" layer="-1.00" shape="1613.868166,5065.419440 1649.282842,5074.140984 1666.044068,5076.316630 1679.301855,5077.038980 1697.293930,5076.268121 1708.030553,5075.855464 1713.954651,5075.659906 1719.462333,5075.700121 1724.162920,5075.946369 1729.343383,5076.401421 1734.266967,5076.829330 1739.116142,5077.377718 1742.725528,5077.613911 1746.031083,5077.589297 1748.814090,5077.432638 1751.424275,5077.161796 1754.367894,5076.686828 1758.215533,5075.786037 1763.751773,5074.352710 1769.138138,5072.683726 1777.351932,5069.628679 1786.126039,5065.819730 1791.808326,5063.757481 1797.479449,5062.271361 1803.680607,5061.593531 1809.971375,5061.604621 1815.810753,5062.593399 1826.846627,5065.866359 1834.962281,5068.406627 1840.141840,5070.502064 1846.439150,5073.893776 1851.676346,5077.264942 1857.859955,5082.272654 1862.822441,5086.536266 1868.523129,5092.554308 1873.023691,5098.338499 1875.531423,5103.352544 1877.093317,5108.824846 1877.572781,5114.896843 1877.567628,5121.535789 1877.009397,5137.053019 1873.150092,5140.680105 1869.290789,5144.307193 1868.823813,5156.179704 1828.610381,5154.945740 1828.521717,5158.457505 1775.986301,5157.095672 1776.067866,5153.949528 1756.217500,5153.387498 1756.612709,5127.149339 1747.505102,5126.917430 1734.270716,5126.583392 1733.749488,5151.888088 1690.444749,5150.783005 1690.476576,5146.483212 1682.120321,5146.265896 1681.956359,5153.134509 1619.847881,5151.654246 1620.144210,5139.013684 1593.688351,5138.213085 1595.464558,5099.665746 1598.024662,5092.411290 1602.471772,5094.049116 1613.868166,5065.419440"/>
    <poly id="1009566193" type="building.commercial" color="255,230,230" fill="1" layer="-1.00" shape="6952.441728,7371.187748 7013.618487,7373.658847 7016.027814,7299.587201 6955.801501,7297.456328 6952.441728,7371.187748"/>
    <poly id="101315891" type="leisure.garden" color="207,245,201" fill="1" layer="-2.00" shape="2953.988697,4413.259647 3043.649466,4429.312843 3020.523424,4462.102773 3033.012985,4486.995803 3052.410027,4497.681004 3043.435098,4514.420029 2955.839433,4498.096594 2917.963526,4489.335350 2910.056616,4476.579476 2913.745597,4462.142737 2935.418490,4466.465693 2940.050445,4480.310583 2954.987488,4482.607257 2971.868592,4489.242216 2978.286985,4485.354790 2977.695457,4471.300305 2978.754103,4469.281508 2982.880373,4461.481303 2981.837749,4451.031311 2957.441001,4445.402857 2938.454297,4432.143286 2953.988697,4413.259647"/>
    <poly id="101315961" type="leisure.garden" color="207,245,201" fill="1" layer="-2.00" shape="2898.396677,4573.678141 2898.699896,4521.025672 2935.156218,4536.065859 2987.155529,4548.183162 3063.056559,4554.315045 3063.642512,4579.763433 2898.396677,4573.678141"/>
    <poly id="101316139" type="leisure.park" color="207,245,201" fill="1" layer="-2.00" shape="2801.146804,6578.192623 2813.982093,6574.640698 2819.960712,6614.469797 3022.415917,6619.308845 3020.935996,6690.016071 3072.180412,6691.346626 3105.976093,6637.096338 3117.102707,6611.332917 3127.407424,6599.751695 3213.006577,6600.610350 3217.208066,6603.729155 3219.023243,6622.584646 3201.372975,6710.500193 3188.833697,6754.335716 3177.601158,6779.720183 3176.266964,6782.675700 3168.036839,6800.858852 3155.413221,6817.327098 3141.452258,6830.045174 3127.624223,6838.055279 3036.919260,6867.367020 3013.238327,6870.120071 2992.233581,6869.201157 2967.631137,6861.650678 2946.559074,6849.912850 2927.748968,6834.095968 2880.351870,6780.592310 2859.828658,6748.582200 2834.107801,6701.153348 2803.344232,6629.807646 2793.301213,6585.100245 2801.146804,6578.192623"/>
    <poly id="101316412" type="leisure.garden" color="207,245,201" fill="1" layer="-2.00" shape="2874.798865,5163.323334 2894.597437,5172.907891 3017.779500,5175.670425 3019.053814,5116.009725 2907.621460,5112.079273 2905.195623,5103.929936 2882.851823,5110.854833 2868.092815,5127.492474 2867.770846,5144.045175 2874.798865,5163.323334"/>
    <poly id="101316607" type="leisure.garden" color="207,245,201" fill="1" layer="-2.00" shape="2982.641915,4378.460167 2997.080898,4359.255992 3010.768295,4355.399140 3057.549561,4356.309276 3073.581916,4362.118713 3076.907529,4391.765692 3054.904564,4397.522246 3033.741323,4395.048932 3006.102242,4393.591283 2987.141705,4384.277941 2982.641915,4378.460167"/>
    <poly id="101316624" type="leisure.garden" color="207,245,201" fill="1" layer="-2.00" shape="3263.234228,4510.961858 3242.547472,4481.907784 3214.709384,4468.464419 3183.713902,4468.581473 3146.637164,4485.416307 3125.063206,4520.453042 3129.332968,4560.304316 3149.701380,4587.201799 3178.616291,4601.386471 3207.855847,4598.364586 3229.385925,4584.097897 3224.711981,4565.020570 3223.469749,4552.139328 3222.912885,4546.364979 3230.182976,4524.649525 3263.234228,4510.961858"/>
    <poly id="101316840" type="leisure.swimming_pool" color="207,245,201" fill="1" layer="-2.00" shape="2997.536274,4483.523606 2989.422084,4483.543094 2982.858004,4479.569377 2982.248823,4472.774336 2978.754103,4469.281508 2985.562929,4463.849968 2989.611492,4454.751466 2986.076448,4446.979566 2992.277198,4441.048518 2996.047301,4446.264671 3006.007326,4446.635770 3008.836842,4452.565149 3013.565624,4456.137410 3014.057204,4459.449901 3003.562444,4458.514211 2996.289296,4462.407168 2993.762608,4468.963868 2993.459655,4475.009645 2997.536274,4483.523606"/>
    <poly id="101317196" type="leisure.garden" color="207,245,201" fill="1" layer="-2.00" shape="3144.518918,5334.705397 3141.359469,5437.744212 3088.077946,5436.119399 3091.257620,5333.081016 3144.518918,5334.705397"/>
    <poly id="101317359" type="leisure.garden" color="207,245,201" fill="1" layer="-2.00" shape="3132.725113,5782.278410 3074.195369,5673.228089 3095.913116,5660.350523 3106.587659,5658.884730 3116.809406,5660.580058 3123.599854,5665.589099 3174.844875,5759.579130 3132.725113,5782.278410"/>
    <poly id="101317424" type="leisure.garden" color="207,245,201" fill="1" layer="-2.00" shape="1683.911938,7098.312366 1692.994809,7076.930972 1722.887048,7063.866791 1748.808798,7068.681027 1749.101471,7053.590889 1720.496769,7037.951403 1687.931829,7040.190550 1653.885164,7072.127131 1631.355545,7050.587238 1639.745695,7027.762612 1670.414405,7011.820568 1695.713202,7011.601771 1694.485171,7000.073224 1678.206286,6987.997917 1649.244275,6988.123559 1614.116398,7007.858446 1599.970033,7022.258834 1582.355353,7005.801906 1602.270902,6985.350882 1604.593958,6977.038917 1585.640495,6948.386306 1570.555009,6943.782406 1557.925469,6952.160619 1545.827554,6942.139378 1553.688053,6919.016280 1543.171699,6902.286903 1507.772980,6891.902813 1523.491907,6863.822472 1562.909948,6890.455382 1579.752761,6879.288191 1578.082546,6853.386823 1594.344404,6835.015161 1618.276183,6830.447117 1637.579204,6841.605603 1655.208620,6864.214231 1658.983985,6893.038162 1652.187667,6907.991115 1630.208130,6923.381233 1614.844278,6933.136176 1613.887006,6945.342774 1633.837711,6964.505072 1665.909196,6952.148022 1684.875259,6950.941894 1711.194370,6958.634387 1726.003440,6963.687497 1749.226804,6977.061312 1760.442854,7004.411409 1768.274735,7038.512274 1775.437153,7074.218364 1769.292988,7093.229424 1748.126319,7103.869192 1722.813480,7104.819127 1705.501136,7103.042524 1690.857540,7112.822427 1683.911938,7098.312366"/>
    <poly id="101317447" type="natural.wood" color="140,196,107" fill="1" layer="-4.00" shape="2517.689847,3585.801794 2490.258063,3535.404182 2491.439220,3524.421112 2581.359674,3615.933003 2626.698072,3662.078932 2735.202264,3836.315242 2761.430077,3921.570229 2779.909740,4002.285603 2791.686005,4101.003542 2778.709924,4126.531831 2694.621770,4113.991401 2674.814925,3922.968465 2610.629864,3932.162361 2589.011068,3949.930641 2565.117341,3948.047878 2566.325590,3898.028900 2569.016644,3842.175498 2569.238485,3784.622690 2555.099700,3688.685622 2517.689847,3585.801794"/>
    <poly id="101317659" type="leisure.garden" color="207,245,201" fill="1" layer="-2.00" shape="2906.839950,5823.778630 2926.768562,5821.872128 2933.839646,5815.104619 2942.380574,5804.231513 2929.844721,5782.839927 2931.956871,5769.536306 2920.265589,5751.829861 2902.733720,5744.849594 2908.772351,5724.473418 2899.959600,5702.223294 2884.821820,5695.489147 2871.758082,5701.220143 2860.421889,5713.413277 2859.574194,5733.170019 2875.965819,5746.368143 2872.065135,5756.877137 2877.397787,5768.020213 2889.774561,5773.780695 2887.181633,5787.983822 2906.839950,5823.778630"/>
    <poly id="101317791" type="leisure.swimming_pool" color="207,245,201" fill="1" layer="-2.00" shape="3153.828735,4521.689021 3148.128812,4518.286229 3147.129875,4511.417083 3151.383273,4506.611976 3154.426456,4505.263584 3156.261184,4503.049312 3155.817571,4496.745157 3157.127542,4492.924624 3158.991600,4489.203545 3160.095226,4485.933179 3166.959132,4487.197317 3171.823091,4489.641731 3176.847404,4488.608997 3179.493195,4483.872356 3181.275624,4479.584423 3186.633648,4476.219535 3190.620116,4475.077934 3194.081997,4476.552950 3197.013731,4476.698690 3197.734050,4478.308760 3200.051471,4485.680177 3200.546185,4489.358501 3196.303981,4493.587464 3194.636183,4496.747093 3195.935811,4502.979246 3197.009571,4506.003822 3194.305866,4508.954863 3185.513368,4509.437639 3180.568972,4511.125861 3179.200377,4513.726048 3178.391045,4516.159784 3173.669605,4516.444722 3170.711238,4512.906865 3165.817956,4511.969258 3164.268466,4513.812236 3162.613401,4516.318180 3157.137626,4516.211595 3154.453282,4518.697505 3153.828735,4521.689021"/>
    <poly id="101317820" type="leisure.garden" color="207,245,201" fill="1" layer="-2.00" shape="3011.853120,5407.702346 2969.280067,5404.989592 2959.263261,5408.097598 2959.206765,5423.170271 2941.683431,5435.309481 2934.279500,5443.300816 2933.494618,5466.705306 2905.718358,5464.989988 2900.616486,5483.256335 2911.801539,5493.127820 2908.880110,5521.567050 2914.956972,5525.686488 2913.275594,5539.076077 2874.925975,5537.864423 2871.900536,5522.964556 2853.673205,5522.609960 2841.444733,5530.385555 2844.199506,5486.159974 2855.762103,5488.269121 2868.166174,5495.814551 2885.255857,5493.786210 2893.250813,5484.520653 2892.710084,5475.798383 2877.164419,5471.494742 2878.497504,5439.488930 2900.061865,5438.733600 2908.384733,5437.487907 2910.944434,5427.640008 2908.236580,5420.759794 2887.668271,5418.475406 2870.579953,5408.256351 2876.840081,5402.958231 2878.948775,5355.428235 2883.058174,5353.247114 2890.913084,5349.066219 2894.969248,5347.504749 2894.752305,5334.310986 2881.819697,5329.581600 2882.080502,5324.643366 2883.339046,5300.172988 2885.847339,5298.259978 2889.348702,5295.579348 2993.936253,5300.917267 2997.885685,5317.010013 2995.666757,5333.680988 2979.045784,5335.951110 2979.526974,5347.731318 2986.495801,5354.694468 3013.868369,5359.704981 3013.099157,5378.066720 3012.461721,5393.360850 3011.853120,5407.702346"/>
    <poly id="1014975132" type="building.yes" color="255,230,230" fill="1" layer="-1.00" shape="4657.775301,4111.153124 4653.143354,4085.791467 4718.150578,4073.618357 4723.529921,4101.300101 4710.370637,4105.487281 4657.775301,4111.153124"/>
    <poly id="1015410194" type="building.construction" color="255,230,230" fill="1" layer="-1.00" shape="1809.965956,5603.667482 1856.772554,5605.705486 1858.693615,5561.851861 1811.886883,5559.813866 1809.965956,5603.667482"/>
    <poly id="1015410195" type="building.construction" color="255,230,230" fill="1" layer="-1.00" shape="1804.367475,5769.235856 1851.173564,5771.273901 1853.094660,5727.420271 1806.288436,5725.382236 1804.367475,5769.235856"/>
    <poly id="1015410196" type="building.construction" color="255,230,230" fill="1" layer="-1.00" shape="1737.020500,5768.307160 1769.470944,5769.457109 1770.007895,5754.504728 1766.768328,5713.953731 1738.989001,5712.960842 1737.020500,5768.307160"/>
    <poly id="1017183658" type="building.roof" color="255,230,230" fill="1" layer="-1.00" shape="1701.489979,5076.515671 1722.077705,5073.567340 1743.385263,5070.666235 1747.572335,5069.783103 1751.006135,5068.985127 1752.892007,5068.367742 1754.315153,5067.719224 1755.906841,5066.874469 1757.148161,5066.045091 1758.246676,5065.146445 1759.055933,5064.297611 1759.721526,5063.423827 1760.148893,5062.623010 1760.433240,5061.764004 1760.618314,5060.714655 1760.650721,5059.573679 1760.403530,5057.983943 1760.384878,5057.883829 1759.706736,5054.623212 1759.420348,5051.336935 1759.663794,5048.338014 1760.242392,5045.046332 1762.349490,5038.326207 1766.569409,5027.778871 1769.104685,5022.341650 1772.137847,5017.246584 1776.900573,5011.630859 1781.243164,5009.099300 1784.806702,5008.514431 1787.687050,5009.179846 1790.307913,5011.015088 1792.583531,5013.663821 1795.590922,5018.399359 1797.829820,5022.942667 1800.664082,5030.767159 1802.712916,5038.210672 1805.060285,5043.531932 1807.790646,5047.685761 1812.341847,5053.515245 1816.620120,5058.020499 1822.162401,5063.182017 1828.415876,5069.897935 1817.278417,5064.960473 1811.892991,5063.393065 1807.569579,5062.810510 1802.254866,5062.907007 1797.515436,5063.602084 1792.176245,5064.961633 1787.898641,5067.328194 1784.217993,5069.706324 1780.314537,5072.955737 1776.292915,5076.989792 1770.961967,5083.237349 1766.459375,5088.182018 1763.539280,5091.162319 1760.813466,5093.680877 1758.683131,5095.224539 1756.379544,5096.676177 1754.458719,5097.503470 1752.480435,5098.107979 1750.383795,5098.444190 1748.693280,5098.544434 1746.812578,5098.363904 1744.986772,5098.007101 1741.865879,5096.472515 1739.299279,5094.494245 1736.540990,5092.312758 1733.388384,5089.757875 1730.306964,5087.248705 1726.734076,5085.129021 1723.815387,5083.254768 1719.233850,5081.115542 1714.253689,5079.356517 1709.973824,5078.120905 1706.467588,5077.343625 1701.489979,5076.515671"/>
    <poly id="1017183686" type="building.yes" color="255,230,230" fill="1" layer="-1.00" shape="1896.801158,5122.052760 1924.109213,5122.981237 1924.549667,5110.354526 1926.936625,5110.445143 1927.365285,5097.895788 1927.932133,5076.626357 1928.817060,5076.654598 1929.309596,5058.686625 1902.409684,5057.943404 1901.906886,5075.911175 1923.620287,5076.509502 1923.012920,5097.744897 1903.555502,5097.090553 1903.164846,5108.742875 1897.258775,5108.539700 1896.801158,5122.052760"/>
    <poly id="1023578630" type="building.residential" color="255,230,230" fill="1" layer="-1.00" shape="7236.130657,4618.372716 7240.274258,4621.291990 7238.780254,4621.861051 7236.973541,4623.144407 7235.619505,4624.447778 7234.084621,4627.088751 7233.362889,4629.745769 7233.276483,4632.559415 7234.262522,4635.294464 7236.424790,4637.387677 7239.144813,4638.350238 7241.740408,4638.312779 7244.385027,4637.356310 7246.560522,4635.647954 7248.335663,4633.355328 7249.131890,4631.619757 7249.659168,4629.424434 7249.721310,4627.840640 7253.182308,4625.171168 7259.677269,4633.124671 7269.272752,4625.366742 7256.865612,4610.191694 7255.630480,4611.209224 7255.819405,4602.678227 7249.767301,4602.547726 7249.744127,4603.722179 7245.987377,4603.636970 7245.758452,4614.195560 7241.352039,4611.027250 7236.130657,4618.372716"/>
    <poly id="1023578631" type="building.residential" color="255,230,230" fill="1" layer="-1.00" shape="7236.983613,4586.101687 7241.279012,4583.415423 7239.829856,4582.755039 7238.096191,4581.379663 7236.805347,4580.001939 7235.417436,4577.281130 7234.842242,4574.598524 7234.918353,4571.784675 7236.042173,4569.102338 7238.315340,4567.140974 7241.101451,4566.320304 7243.682393,4566.504236 7246.265995,4567.597113 7248.351175,4569.422788 7249.992895,4571.805001 7250.699238,4573.581303 7251.108410,4575.806188 7251.077148,4577.390591 7254.387895,4580.249099 7261.313122,4572.660155 7270.468984,4580.921098 7257.250109,4595.402062 7256.025635,4594.313832 7255.819405,4602.678227 7249.767301,4602.547726 7249.778213,4601.472788 7246.011607,4601.365217 7246.303820,4590.730287 7241.806733,4593.722924 7236.983613,4586.101687"/>
    <poly id="1023578632" type="building.residential" color="255,230,230" fill="1" layer="-1.00" shape="7228.356066,4538.536046 7236.268831,4544.566710 7238.635913,4541.498793 7242.987823,4544.821200 7255.531035,4528.575608 7252.183275,4526.026726 7253.419706,4524.421765 7252.137820,4522.589771 7249.862711,4519.430262 7249.039955,4520.422678 7245.550275,4517.760156 7240.340670,4524.507317 7235.136592,4520.536307 7232.008730,4524.586780 7231.728211,4525.235205 7231.633625,4525.854046 7231.679645,4526.653006 7231.903271,4527.322461 7232.521989,4528.321149 7231.053429,4530.209717 7233.396818,4531.996147 7228.356066,4538.536046"/>
    <poly id="1023578638" type="building.retail" color="255,230,230" fill="1" layer="-1.00" shape="7231.839217,4488.815191 7230.593966,4488.779539 7229.999780,4511.589885 7239.581587,4511.834349 7239.634725,4509.662922 7245.462546,4508.115296 7250.499984,4506.441237 7255.769337,4504.494653 7261.338486,4501.966532 7267.269628,4498.835932 7272.391768,4495.478773 7272.474006,4492.354691 7280.522368,4492.557838 7280.653378,4487.483923 7275.116323,4487.341414 7275.293479,4480.450625 7242.627180,4479.595499 7242.537460,4481.533439 7240.081770,4481.263308 7237.554703,4481.479468 7235.269226,4482.498446 7233.433825,4484.191348 7232.247568,4486.384755 7231.839217,4488.815191"/>
    <poly id="1023578640" type="building.residential" color="255,230,230" fill="1" layer="-1.00" shape="6569.912161,4607.957971 6571.354245,4604.794171 6574.097393,4601.445391 6577.271841,4599.202417 6581.430097,4597.721440 6585.708243,4597.473147 6589.931734,4598.431936 6593.213364,4600.159145 6596.347918,4603.080530 6598.551122,4606.759459 6599.525271,4610.103838 6599.692203,4613.654003 6603.294599,4617.393734 6596.495152,4623.843752 6589.432062,4616.489008 6587.021002,4618.137390 6584.136602,4618.723473 6581.103616,4617.965468 6579.231258,4616.310342 6572.431822,4622.760370 6565.590805,4615.631691 6569.378780,4612.037463 6569.912161,4607.957971"/>
    <poly id="1023578641" type="building.residential" color="255,230,230" fill="1" layer="-1.00" shape="6573.602204,4471.254160 6575.044080,4468.101440 6577.787467,4464.741578 6580.972233,4462.498804 6585.120232,4461.017622 6589.408709,4460.769529 6593.632238,4461.728313 6596.903606,4463.455317 6600.048484,4466.376903 6602.251712,4470.055829 6603.215581,4473.400004 6603.392812,4476.950371 6606.984950,4480.689896 6600.195743,4487.140121 6593.122289,4479.785182 6590.721503,4481.433767 6587.837078,4482.019853 6584.804064,4481.261850 6582.931687,4479.606726 6576.121687,4486.067635 6569.280601,4478.938963 6573.079116,4475.333855 6573.602204,4471.254160"/>
    <poly id="1023578642" type="building.residential" color="255,230,230" fill="1" layer="-1.00" shape="6568.697562,4671.744604 6577.309973,4680.947619 6577.236597,4683.628501 6571.814359,4688.642553 6576.695587,4693.848376 6584.435761,4686.685332 6601.827807,4687.182944 6602.110240,4677.545428 6586.714801,4677.098212 6575.661665,4665.297820 6568.697562,4671.744604"/>
    <poly id="1023578643" type="building.residential" color="255,230,230" fill="1" layer="-1.00" shape="6601.827807,4687.182944 6619.096338,4687.678144 6626.732113,4695.753561 6631.935381,4690.879307 6626.589201,4685.232032 6626.651022,4683.138374 6636.166085,4674.214694 6629.639621,4667.324937 6618.236481,4678.007051 6602.110240,4677.545428 6601.827807,4687.182944"/>
    <poly id="1023578644" type="building.residential" color="255,230,230" fill="1" layer="-1.00" shape="6659.707214,4665.733493 6674.011834,4666.148214 6684.741239,4678.175075 6691.989234,4671.955608 6684.458369,4663.782466 6684.520197,4661.688807 6694.045603,4652.765361 6687.519151,4645.875578 6676.105659,4656.557452 6659.979389,4656.095771 6659.707214,4665.733493"/>
    <poly id="1023578645" type="building.residential" color="255,230,230" fill="1" layer="-1.00" shape="6626.566668,4650.294825 6635.189137,4659.509157 6635.105677,4662.178757 6629.639621,4667.324937 6636.166085,4674.214694 6645.698472,4665.457619 6659.707214,4665.733493 6659.979389,4656.095771 6644.583922,4655.648499 6633.541100,4643.848265 6626.566668,4650.294825"/>
    <poly id="1023578647" type="building.residential" color="255,230,230" fill="1" layer="-1.00" shape="6664.183440,4615.688705 6681.337527,4616.248215 6681.010167,4626.073278 6689.633524,4626.353953 6689.703245,4624.382373 6691.169834,4623.635378 6692.337890,4622.361554 6692.788889,4620.375316 6692.434633,4618.495142 6691.290907,4616.965192 6689.957579,4616.174135 6690.054215,4613.881650 6698.019111,4605.769852 6690.969875,4598.758934 6683.257467,4606.598608 6664.508388,4605.985519 6664.183440,4615.688705"/>
    <poly id="1023578648" type="building.residential" color="255,230,230" fill="1" layer="-1.00" shape="6709.744969,4576.617103 6709.356055,4589.566645 6719.987666,4589.831469 6719.788057,4597.874526 6717.235604,4597.813167 6716.576923,4598.842090 6715.481970,4599.540984 6713.827884,4599.874177 6712.259598,4599.510767 6711.201781,4598.847060 6710.508365,4597.979934 6705.762844,4597.908634 6698.019111,4605.769852 6690.969875,4598.758934 6699.312748,4590.277725 6699.721730,4576.308850 6709.744969,4576.617103"/>
    <poly id="1023578649" type="building.residential" color="255,230,230" fill="1" layer="-1.00" shape="6709.744969,4576.617103 6710.112897,4564.210264 6720.763803,4564.541969 6721.015094,4556.488847 6718.462853,4556.416409 6717.741611,4555.393558 6716.686846,4554.574735 6715.169802,4554.223419 6713.754634,4554.450478 6712.651786,4555.027293 6711.749344,4555.885155 6707.006209,4555.691980 6699.714207,4547.412703 6692.283320,4554.027596 6700.119363,4562.916120 6699.721730,4576.308850 6709.744969,4576.617103"/>
    <poly id="1023578650" type="building.residential" color="255,230,230" fill="1" layer="-1.00" shape="6666.469881,4535.662909 6683.627767,4536.034055 6683.702212,4532.776825 6683.841680,4526.217842 6692.467057,4526.398794 6692.428216,4528.370982 6693.862301,4529.274862 6694.753945,4530.533830 6695.209171,4532.515748 6695.085036,4533.067504 6694.746568,4534.568262 6693.797062,4535.724467 6692.235427,4536.591515 6692.200551,4538.885217 6699.714207,4547.412703 6692.283320,4554.027596 6685.021535,4545.782174 6666.258161,4545.368324 6666.469881,4535.662909"/>
    <poly id="1023578651" type="amenity.kindergarten" color="237,199,199" fill="1" layer="-2.00" shape="6697.852479,4709.379853 6720.069942,4710.072402 6729.640559,4699.376427 6731.845036,4628.759296 6700.163561,4627.592158 6697.852479,4709.379853"/>
    <poly id="1023578652" type="building.residential" color="255,230,230" fill="1" layer="-1.00" shape="6695.021850,4506.996684 6695.207214,4496.016088 6708.063943,4496.236044 6708.227930,4486.341259 6703.513471,4486.259492 6702.788952,4485.402839 6701.734180,4484.584017 6700.217129,4484.232704 6698.801956,4484.459765 6697.699104,4485.036581 6696.585996,4486.134143 6692.396486,4486.062719 6685.101820,4477.916411 6677.670911,4484.531313 6685.321727,4493.416176 6685.088367,4506.834306 6695.021850,4506.996684"/>
    <poly id="1023578653" type="building.residential" color="255,230,230" fill="1" layer="-1.00" shape="6651.859292,4466.066950 6669.017254,4466.438071 6669.229406,4456.710497 6677.854603,4456.902517 6677.815765,4458.874704 6679.249857,4459.778581 6680.141507,4461.037549 6680.596957,4463.008386 6680.134137,4465.071980 6679.184847,4466.217106 6677.623207,4467.084156 6677.588116,4469.388938 6685.101820,4477.916411 6677.670911,4484.531313 6670.308113,4476.184159 6651.647587,4475.772364 6651.859292,4466.066950"/>
    <poly id="1023578654" type="building.residential" color="255,230,230" fill="1" layer="-1.00" shape="6651.859292,4466.066950 6640.907859,4465.829140 6641.165847,4454.295779 6632.538251,4454.225657 6632.530298,4456.198451 6631.083411,4456.990178 6629.945795,4458.286774 6629.546268,4460.274027 6629.941710,4462.155009 6630.850459,4463.591653 6631.813906,4464.342167 6631.729360,4467.067165 6619.610753,4479.564067 6626.675172,4486.331391 6637.207017,4475.454766 6651.647587,4475.772364 6651.859292,4466.066950"/>
    <poly id="1023578655" type="building.retail" color="255,230,230" fill="1" layer="-1.00" shape="6711.935004,4523.977961 6730.416351,4524.596905 6732.315103,4467.928527 6732.228757,4463.947669 6731.635503,4461.131730 6729.940484,4458.837208 6727.632097,4457.361905 6724.174880,4456.706360 6688.662919,4455.519270 6688.254871,4469.964772 6712.221200,4470.758209 6712.886110,4474.118673 6714.156238,4476.027970 6716.242794,4477.787086 6718.495531,4478.950939 6717.415063,4511.328205 6712.362468,4511.162187 6711.935004,4523.977961"/>
    <poly id="1023940396" type="landuse.commercial" color="209,209,204" fill="1" layer="-3.00" shape="6364.294900,5984.864691 6337.926140,5983.846846 6332.877054,5983.004833 6326.717304,5979.480803 6321.315464,5973.544301 6249.972689,5872.107316 6256.092956,5864.036687 6318.834569,5865.759118 6365.422108,5941.725817 6364.294900,5984.864691"/>
    <poly id="1024521321" type="building.yes" color="255,230,230" fill="1" layer="-1.00" shape="4773.228830,5337.420134 4823.667345,5339.161336 4822.161485,5382.414224 4821.934037,5388.771892 4820.877761,5419.054415 4811.339590,5418.723566 4770.460311,5417.302515 4771.878233,5376.430941 4773.228830,5337.420134"/>
    <poly id="1024614639" type="building.yes" color="255,230,230" fill="1" layer="-1.00" shape="4821.934037,5388.771892 4844.822303,5388.266858 4845.154758,5381.279467 4822.161485,5382.414224 4821.934037,5388.771892"/>
    <poly id="1024614643" type="leisure.fitness_station" color="207,245,201" fill="1" layer="-2.00" shape="4750.400031,5547.898498 4765.761708,5542.125302 4780.207993,5538.406874 4795.107651,5536.249073 4795.510161,5525.682976 4752.715706,5525.332819 4749.012816,5528.297297 4748.399887,5546.983719 4750.400031,5547.898498"/>
    <poly id="1024614643#1" type="sport.fitness" color="79,230,125" fill="1" layer="-2.00" shape="4750.400031,5547.898498 4765.761708,5542.125302 4780.207993,5538.406874 4795.107651,5536.249073 4795.510161,5525.682976 4752.715706,5525.332819 4749.012816,5528.297297 4748.399887,5546.983719 4750.400031,5547.898498"/>
    <poly id="1041691133" type="leisure.park" color="207,245,201" fill="1" layer="-2.00" shape="4447.890344,6854.557317 4448.725403,6827.141205 4620.766762,6831.528480 4627.466066,6837.988523 4626.632026,6859.552423 4447.890344,6854.557317"/>
    <poly id="1044408504" type="building.residential" color="255,230,230" fill="1" layer="-1.00" shape="3136.728994,5662.852167 3159.966093,5650.735791 3155.749480,5642.562590 3150.848845,5645.193740 3144.796094,5634.025444 3131.782219,5640.887745 3137.884926,5652.134593 3132.640992,5654.947485 3136.728994,5662.852167"/>
    <poly id="1044408505" type="building.residential" color="255,230,230" fill="1" layer="-1.00" shape="3179.022668,5640.754763 3201.626329,5627.861331 3197.617015,5620.146585 3193.007779,5622.617143 3186.736172,5611.056637 3173.628548,5617.972500 3179.898219,5629.632716 3174.716669,5632.413560 3179.022668,5640.754763"/>