<?xml version="1.0" encoding="UTF-8"?>


<routes xmlns:xsi="http://www.w3.org/2001/XMLSchema-instance" xsi:noNamespaceSchemaLocation="http://sumo.dlr.de/xsd/routes_file.xsd">
    <vType id="bus_bus" vClass="bus"/>
    <trip id="bus0" type="bus_bus" depart="0.00" departLane="best" from="565485201#2" to="-219961340#2"/>
    <trip id="bus1" type="bus_bus" depart="0.76" departLane="best" from="636481680" to="586589637#6"/>
    <trip id="bus2" type="bus_bus" depart="1.53" departLane="best" from="953806722#1" to="-96327298#4"/>
    <trip id="bus3" type="bus_bus" depart="2.29" departLane="best" departSpeed="max" from="233713926#0" to="-226526602#1"/>
    <trip id="bus4" type="bus_bus" depart="3.06" departLane="best" from="1050942994#0" to="328900405#7-AddedOffRampEdge"/>
    <trip id="bus5" type="bus_bus" depart="3.82" departLane="best" from="-208128055#10" to="1052247919#4"/>
    <trip id="bus6" type="bus_bus" depart="4.59" departLane="best" from="570468188#2" to="488273278"/>
    <trip id="bus7" type="bus_bus" depart="5.35" departLane="best" from="1050942998#0" to="533894270#1"/>
    <trip id="bus8" type="bus_bus" depart="6.12" departLane="best" from="736676593#7" to="-107586296#1"/>
    <trip id="bus9" type="bus_bus" depart="6.88" departLane="best" from="721523326" to="636236894"/>
    <trip id="bus10" type="bus_bus" depart="7.65" departLane="best" from="187408909#0" to="1050921382#0"/>
    <trip id="bus11" type="bus_bus" depart="8.41" departLane="best" from="982037158" to="220657249#2"/>
    <trip id="bus12" type="bus_bus" depart="9.18" departLane="best" departSpeed="max" from="-540214262" to="101316606#0"/>
    <trip id="bus13" type="bus_bus" depart="9.94" departLane="best" from="862777451#0" to="556707372#6"/>
    <trip id="bus14" type="bus_bus" depart="10.71" departLane="best" from="733502963#0" to="636237022#1"/>
    <trip id="bus16" type="bus_bus" depart="12.24" departLane="best" departSpeed="max" from="773895043#0" to="563883392#15"/>
    <trip id="bus17" type="bus_bus" depart="13.00" departLane="best" from="894305092#1" to="533466793#4"/>
    <trip id="bus18" type="bus_bus" depart="13.77" departLane="best" from="636236984#1" to="-497373357#2"/>
    <trip id="bus19" type="bus_bus" depart="14.53" departLane="best" from="1051266595-AddedOnRampEdge" to="182370605#1"/>
    <trip id="bus20" type="bus_bus" depart="15.30" departLane="best" from="-533894270#0" to="1058988267#0"/>
    <trip id="bus21" type="bus_bus" depart="16.06" departLane="best" from="-640221834#1" to="165265381"/>
    <trip id="bus22" type="bus_bus" depart="16.83" departLane="best" from="565480543#1-AddedOnRampEdge" to="231901936"/>
    <trip id="bus23" type="bus_bus" depart="17.59" departLane="best" departSpeed="max" from="220885830#0" to="1052673737#3"/>
    <trip id="bus24" type="bus_bus" depart="18.36" departLane="best" from="1055022193#2" to="972622896#4"/>
    <trip id="bus25" type="bus_bus" depart="19.12" departLane="best" from="570468184#3" to="556707383#2"/>
    <trip id="bus26" type="bus_bus" depart="19.89" departLane="best" from="101317296" to="636237020#2"/>
    <trip id="bus27" type="bus_bus" depart="20.65" departLane="best" from="101316762#19" to="232332587#1"/>
    <trip id="bus28" type="bus_bus" depart="21.42" departLane="best" departSpeed="max" from="996890848" to="566000431#1"/>
    <trip id="bus30" type="bus_bus" depart="22.95" departLane="best" departSpeed="max" from="833749485#0" to="679999362#4"/>
    <trip id="bus31" type="bus_bus" depart="23.71" departLane="best" departSpeed="max" from="1051539560#0" to="-231408851#2"/>
    <trip id="bus32" type="bus_bus" depart="24.48" departLane="best" from="165265281#2" to="165265286#1"/>
    <trip id="bus33" type="bus_bus" depart="25.24" departLane="best" from="1050921384#1" to="972622978#0"/>
    <trip id="bus34" type="bus_bus" depart="26.01" departLane="best" from="580915672#5" to="232789554"/>
    <trip id="bus35" type="bus_bus" depart="26.77" departLane="best" from="963575161#0-AddedOffRampEdge" to="25529436"/>
    <trip id="bus36" type="bus_bus" depart="27.54" departLane="best" from="1055022190#4" to="107586297#2"/>
    <trip id="bus37" type="bus_bus" depart="28.30" departLane="best" from="413035251#6" to="107586330"/>
    <trip id="bus39" type="bus_bus" depart="29.83" departLane="best" from="231988173#1-AddedOnRampEdge" to="1055022196#7-AddedOffRampEdge"/>
    <trip id="bus41" type="bus_bus" depart="31.36" departLane="best" departSpeed="max" from="-540214262" to="-497373357#2"/>
    <trip id="bus42" type="bus_bus" depart="32.13" departLane="best" from="-707365794#6" to="565480536#5"/>
    <trip id="bus43" type="bus_bus" depart="32.89" departLane="best" from="69347634#5" to="237904516#3"/>
    <trip id="bus44" type="bus_bus" depart="33.65" departLane="best" from="-497373357#5" to="232420304"/>
    <trip id="bus47" type="bus_bus" depart="35.95" departLane="best" departSpeed="max" from="-107586296#5" to="636236984#1"/>
    <trip id="bus48" type="bus_bus" depart="36.71" departLane="best" from="633620767#2-AddedOnRampEdge" to="446804371#0"/>
    <trip id="bus49" type="bus_bus" depart="37.48" departLane="best" from="1055022193#2" to="566000432#1"/>
    <trip id="bus51" type="bus_bus" depart="39.01" departLane="best" departSpeed="max" from="237905396" to="974372178#13"/>
    <trip id="bus52" type="bus_bus" depart="39.77" departLane="best" from="910067112" to="107586340#2"/>
    <trip id="bus53" type="bus_bus" depart="40.54" departLane="best" from="256666750#4" to="1050943015#2"/>
    <trip id="bus54" type="bus_bus" depart="41.30" departLane="best" departSpeed="max" from="963575161#0" to="862777463#1"/>
    <trip id="bus55" type="bus_bus" depart="42.07" departLane="best" departSpeed="max" from="107586314#0" to="565485208#1"/>
    <trip id="bus56" type="bus_bus" depart="42.83" departLane="best" from="533967338" to="1050765300"/>
    <trip id="bus57" type="bus_bus" depart="43.60" departLane="best" departSpeed="max" from="680992417#0" to="446804371#1"/>
    <trip id="bus58" type="bus_bus" depart="44.36" departLane="best" from="686238257#23-AddedOnRampEdge" to="413035251#0-AddedOffRampEdge"/>
    <trip id="bus59" type="bus_bus" depart="45.13" departLane="best" from="-101316678#4" to="208128062"/>
    <trip id="bus61" type="bus_bus" depart="46.66" departLane="best" departSpeed="max" from="911272945" to="739020657"/>
    <trip id="bus62" type="bus_bus" depart="47.42" departLane="best" departSpeed="max" from="107586340#0" to="-540214261#3"/>
    <trip id="bus63" type="bus_bus" depart="48.19" departLane="best" departSpeed="max" from="911272945" to="972623148#0"/>
    <trip id="bus64" type="bus_bus" depart="48.95" departLane="best" departSpeed="max" from="-536237115#4" to="27104897#0"/>
    <trip id="bus65" type="bus_bus" depart="49.72" departLane="best" departSpeed="max" from="-529249851#8" to="671753468#2"/>
    <trip id="bus66" type="bus_bus" depart="50.48" departLane="best" from="25449046#0" to="488882755#4"/>
    <trip id="bus67" type="bus_bus" depart="51.25" departLane="best" from="1055022190#4" to="862777463#1"/>
    <trip id="bus68" type="bus_bus" depart="52.01" departLane="best" from="233713926#11" to="1055022190#1"/>
    <trip id="bus69" type="bus_bus" depart="52.78" departLane="best" from="329066212#1" to="636237022#2"/>
    <trip id="bus70" type="bus_bus" depart="53.54" departLane="best" departSpeed="max" from="1050765262#0" to="208128050#3"/>
    <trip id="bus72" type="bus_bus" depart="55.07" departLane="best" from="234218185#2-AddedOnRampEdge" to="330461433#12"/>
    <trip id="bus73" type="bus_bus" depart="55.84" departLane="best" departSpeed="max" from="-773895039" to="1057494135#1"/>
    <trip id="bus74" type="bus_bus" depart="56.60" departLane="best" from="183402036#3" to="533894270#1"/>
    <trip id="bus75" type="bus_bus" depart="57.37" departLane="best" departSpeed="max" from="1051539560#0" to="1055022197#0"/>
    <trip id="bus76" type="bus_bus" depart="58.13" departLane="best" departSpeed="max" from="-529249851#8" to="565480542#1"/>
    <trip id="bus77" type="bus_bus" depart="58.90" departLane="best" departSpeed="max" from="1051539560#0" to="953806720#1-AddedOnRampEdge"/>
    <trip id="bus79" type="bus_bus" depart="60.43" departLane="best" departSpeed="max" from="1052075126#0" to="585481080#1-AddedOnRampEdge"/>
    <trip id="bus80" type="bus_bus" depart="61.19" departLane="best" from="1050921394#4" to="1031889491#2"/>
    <trip id="bus82" type="bus_bus" depart="62.72" departLane="best" departSpeed="max" from="25447637#0" to="686238257#12-AddedOnRampEdge"/>
    <trip id="bus84" type="bus_bus" depart="64.25" departLane="best" departSpeed="max" from="-636485905" to="237905382"/>
    <trip id="bus85" type="bus_bus" depart="65.02" departLane="best" from="233713926#12" to="256666750#2"/>
    <trip id="bus87" type="bus_bus" depart="66.54" departLane="best" from="996007441#0" to="101316643#1-AddedOnRampEdge"/>
    <trip id="bus89" type="bus_bus" depart="68.07" departLane="best" from="894305092#1" to="107586297#2"/>
    <trip id="bus90" type="bus_bus" depart="68.84" departLane="best" departSpeed="max" from="1049950452" to="25447638#2"/>
    <trip id="bus91" type="bus_bus" depart="69.60" departLane="best" departSpeed="max" from="233713926#0" to="165265388"/>
    <trip id="bus92" type="bus_bus" depart="70.37" departLane="best" from="235252455" to="788343043"/>
    <trip id="bus93" type="bus_bus" depart="71.13" departLane="best" from="330461433#5" to="-529249851#3"/>
    <trip id="bus95" type="bus_bus" depart="72.66" departLane="best" from="987583391" to="963575158#1"/>
    <trip id="bus96" type="bus_bus" depart="73.43" departLane="best" from="862777451#2" to="1050942995#0"/>
    <trip id="bus97" type="bus_bus" depart="74.19" departLane="best" from="25529188#3" to="1055022193#1"/>
    <trip id="bus99" type="bus_bus" depart="75.72" departLane="best" from="231067709#0" to="995989150#0"/>
    <trip id="bus100" type="bus_bus" depart="76.49" departLane="best" from="1055022190#4" to="686238257#12-AddedOffRampEdge"/>
    <trip id="bus102" type="bus_bus" depart="78.02" departLane="best" from="982037158-AddedOffRampEdge" to="996890850"/>
    <trip id="bus103" type="bus_bus" depart="78.78" departLane="best" from="393898830#0-AddedOffRampEdge" to="636236975"/>
    <trip id="bus104" type="bus_bus" depart="79.55" departLane="best" from="101316643#0" to="183402036#2"/>
    <trip id="bus105" type="bus_bus" depart="80.31" departLane="best" from="987583389#0" to="533466793#4"/>
    <trip id="bus106" type="bus_bus" depart="81.08" departLane="best" from="329066213#2" to="636485906"/>
    <trip id="bus107" type="bus_bus" depart="81.84" departLane="best" from="-446481980#4" to="533894248#0"/>
    <trip id="bus108" type="bus_bus" depart="82.61" departLane="best" departSpeed="max" from="264306568#0" to="778460597#15"/>
    <trip id="bus109" type="bus_bus" depart="83.37" departLane="best" departSpeed="max" from="101316762#0" to="974379911-AddedOffRampEdge"/>
    <trip id="bus110" type="bus_bus" depart="84.14" departLane="best" departSpeed="max" from="-533894270#1" to="1051817802"/>
    <trip id="bus111" type="bus_bus" depart="84.90" departLane="best" from="498477955#0" to="585481140"/>
    <trip id="bus112" type="bus_bus" depart="85.67" departLane="best" from="1051817802" to="1017489393#2-AddedOnRampEdge"/>
    <trip id="bus113" type="bus_bus" depart="86.43" departLane="best" from="953806720#0" to="107586297#2"/>
    <trip id="bus114" type="bus_bus" depart="87.20" departLane="best" from="498477953#1" to="563883392#17"/>
    <trip id="bus115" type="bus_bus" depart="87.96" departLane="best" departSpeed="max" from="233713926#0" to="533894247"/>
    <trip id="bus116" type="bus_bus" depart="88.73" departLane="best" from="27104897#1" to="972622896#3"/>
    <trip id="bus117" type="bus_bus" depart="89.49" departLane="best" departSpeed="max" from="1050765263#0" to="636236962#0"/>
    <trip id="bus118" type="bus_bus" depart="90.26" departLane="best" departSpeed="max" from="1052075126#0" to="232789554"/>
    <trip id="bus119" type="bus_bus" depart="91.02" departLane="best" from="586589637#4" to="187408910#0"/>
    <trip id="bus120" type="bus_bus" depart="91.79" departLane="best" from="165265283#1" to="638899196"/>
    <trip id="bus121" type="bus_bus" depart="92.55" departLane="best" departSpeed="max" from="-529249851#8" to="25529188#6"/>
    <trip id="bus122" type="bus_bus" depart="93.32" departLane="best" departSpeed="max" from="996890881#0" to="996890854"/>
    <trip id="bus123" type="bus_bus" depart="94.08" departLane="best" from="-529249852#3" to="1055022192#0"/>
    <trip id="bus124" type="bus_bus" depart="94.85" departLane="best" from="1055022190#4" to="96392614"/>
    <trip id="bus125" type="bus_bus" depart="95.61" departLane="best" from="913590441#1" to="894305093"/>
    <trip id="bus126" type="bus_bus" depart="96.38" departLane="best" departSpeed="max" from="220885830#0" to="1050921384#1"/>
    <trip id="bus127" type="bus_bus" depart="97.14" departLane="best" from="780057682#0" to="636236914"/>
    <trip id="bus128" type="bus_bus" depart="97.91" departLane="best" from="533976906" to="995989151"/>
    <trip id="bus129" type="bus_bus" depart="98.67" departLane="best" from="580915672#0" to="-107586296#1"/>
    <trip id="bus130" type="bus_bus" depart="99.44" departLane="best" departSpeed="max" from="773895012#0" to="187408909#3"/>
    <trip id="bus131" type="bus_bus" depart="100.20" departLane="best" departSpeed="max" from="-96392614" to="101317852#0"/>
    <trip id="bus132" type="bus_bus" depart="100.96" departLane="best" from="-689220805#0" to="488882769#0"/>
    <trip id="bus133" type="bus_bus" depart="101.73" departLane="best" from="1055022196#7-AddedOnRampEdge" to="556707372#6"/>
    <trip id="bus134" type="bus_bus" depart="102.49" departLane="best" departSpeed="max" from="636237024" to="1052673725#2-AddedOnRampEdge"/>
    <trip id="bus136" type="bus_bus" depart="104.02" departLane="best" departSpeed="max" from="255634810#0" to="953806720#1-AddedOnRampEdge"/>
    <trip id="bus137" type="bus_bus" depart="104.79" departLane="best" from="833749485#2" to="101316004#0-AddedOnRampEdge"/>
    <trip id="bus138" type="bus_bus" depart="105.55" departLane="best" from="233713926#12" to="165265378#1"/>
    <trip id="bus139" type="bus_bus" depart="106.32" departLane="best" departSpeed="max" from="-1050942998#1" to="679999361#11"/>
    <trip id="bus140" type="bus_bus" depart="107.08" departLane="best" from="565480545#1-AddedOffRampEdge" to="107586326#0"/>
    <trip id="bus141" type="bus_bus" depart="107.85" departLane="best" from="638899187" to="488882755#4"/>
    <trip id="bus142" type="bus_bus" depart="108.61" departLane="best" from="233713929#3-AddedOffRampEdge" to="-107586297#1"/>
    <trip id="bus143" type="bus_bus" depart="109.38" departLane="best" from="-533894266#1" to="894814744"/>
    <trip id="bus144" type="bus_bus" depart="110.14" departLane="best" departSpeed="max" from="96327306" to="488552161#1"/>
    <trip id="bus145" type="bus_bus" depart="110.91" departLane="best" departSpeed="max" from="780526355#0" to="533679821#2"/>
    <trip id="bus146" type="bus_bus" depart="111.67" departLane="best" from="101316033#3-AddedOffRampEdge" to="1031889490#1-AddedOffRampEdge"/>
    <trip id="bus147" type="bus_bus" depart="112.44" departLane="best" from="107586340#1" to="916419668#6"/>
    <trip id="bus149" type="bus_bus" depart="113.97" departLane="best" from="96327291#0" to="1055022186#1"/>
    <trip id="bus150" type="bus_bus" depart="114.73" departLane="best" from="1052247917#1" to="101316762#20"/>
    <trip id="bus151" type="bus_bus" depart="115.50" departLane="best" from="686238257#5-AddedOnRampEdge" to="894814745"/>
    <trip id="bus152" type="bus_bus" depart="116.26" departLane="best" from="232332588" to="563883392#21"/>
    <trip id="bus154" type="bus_bus" depart="117.79" departLane="best" from="894305095#5-AddedOffRampEdge" to="984908601#4"/>
    <trip id="bus155" type="bus_bus" depart="118.56" departLane="best" departSpeed="max" from="770697248" to="894305095#5"/>
    <trip id="bus156" type="bus_bus" depart="119.32" departLane="best" from="-208128052#5" to="636282358#2-AddedOnRampEdge"/>
    <trip id="bus157" type="bus_bus" depart="120.09" departLane="best" from="182370599#0-AddedOnRampEdge" to="96392614"/>
    <trip id="bus158" type="bus_bus" depart="120.85" departLane="best" departSpeed="max" from="69569324" to="846028687"/>
    <trip id="bus159" type="bus_bus" depart="121.62" departLane="best" departSpeed="max" from="770697248" to="165265281#3"/>
    <trip id="bus161" type="bus_bus" depart="123.15" departLane="best" departSpeed="max" from="895941576" to="783261470#1"/>
    <trip id="bus162" type="bus_bus" depart="123.91" departLane="best" from="1050943006" to="733502963#0"/>
    <trip id="bus163" type="bus_bus" depart="124.68" departLane="best" from="246970851#0" to="203270131#9"/>
    <trip id="bus164" type="bus_bus" depart="125.44" departLane="best" from="69347635#6" to="1057516176"/>
    <trip id="bus165" type="bus_bus" depart="126.21" departLane="best" from="-208128052#1" to="1052247917#2"/>
    <trip id="bus166" type="bus_bus" depart="126.97" departLane="best" from="165265404#4" to="862777450"/>
    <trip id="bus167" type="bus_bus" depart="127.74" departLane="best" from="984908602#5" to="165265391"/>
    <trip id="bus168" type="bus_bus" depart="128.50" departLane="best" from="565485208#1" to="233713926#8-AddedOnRampEdge"/>
    <trip id="bus169" type="bus_bus" depart="129.27" departLane="best" from="995989152#1" to="446481980#6"/>
    <trip id="bus171" type="bus_bus" depart="130.80" departLane="best" departSpeed="max" from="995989148" to="1050943015#2"/>
    <trip id="bus175" type="bus_bus" depart="133.85" departLane="best" from="533894251#5" to="329066213#7"/>
    <trip id="bus176" type="bus_bus" depart="134.62" departLane="best" from="231405340" to="533466793#4"/>
    <trip id="bus177" type="bus_bus" depart="135.38" departLane="best" from="1052247923#2" to="636236956#2"/>
    <trip id="bus178" type="bus_bus" depart="136.15" departLane="best" from="-1050942998#0" to="963575158#1"/>
    <trip id="bus179" type="bus_bus" depart="136.91" departLane="best" from="329066211" to="636236981"/>
    <trip id="bus180" type="bus_bus" depart="137.68" departLane="best" from="638899191" to="585481082#0-AddedOnRampEdge"/>
    <trip id="bus181" type="bus_bus" depart="138.44" departLane="best" from="220880935#0" to="-69347868#6"/>
    <trip id="bus182" type="bus_bus" depart="139.21" departLane="best" from="585481081#0" to="219961340#8"/>
    <trip id="bus184" type="bus_bus" depart="140.74" departLane="best" departSpeed="max" from="636258633#0" to="187408910#0-AddedOffRampEdge"/>
    <trip id="bus185" type="bus_bus" depart="141.50" departLane="best" from="107586340#5" to="233713930#4-AddedOffRampEdge"/>
    <trip id="bus187" type="bus_bus" depart="143.03" departLane="best" departSpeed="max" from="-783261470#1" to="237756476#1"/>
    <trip id="bus189" type="bus_bus" depart="144.56" departLane="best" from="107586314#2" to="488552161#6"/>
    <trip id="bus190" type="bus_bus" depart="145.33" departLane="best" from="-101316678#4" to="182370599#0-AddedOnRampEdge"/>
    <trip id="bus191" type="bus_bus" depart="146.09" departLane="best" from="233713930#2-AddedOnRampEdge" to="533466795#1"/>
    <trip id="bus192" type="bus_bus" depart="146.86" departLane="best" from="580915672#3" to="256666742#0"/>
    <trip id="bus193" type="bus_bus" depart="147.62" departLane="best" from="234532262" to="1055022193#1"/>
    <trip id="bus194" type="bus_bus" depart="148.39" departLane="best" departSpeed="max" from="25447637#0" to="928731657"/>
    <trip id="bus196" type="bus_bus" depart="149.92" departLane="best" from="-536237115#1" to="329087013#1"/>
    <trip id="bus197" type="bus_bus" depart="150.68" departLane="best" from="565480536#0" to="220657249#2"/>
    <trip id="bus198" type="bus_bus" depart="151.45" departLane="best" departSpeed="max" from="773895012#0" to="638899193"/>
    <trip id="bus200" type="bus_bus" depart="152.98" departLane="best" departSpeed="max" from="1050765261" to="-208128058#3"/>
    <trip id="bus201" type="bus_bus" depart="153.74" departLane="best" from="1052231182#0" to="264306572#3"/>
    <trip id="bus202" type="bus_bus" depart="154.51" departLane="best" from="862777455" to="-771755299"/>
    <trip id="bus204" type="bus_bus" depart="156.04" departLane="best" from="1049950458" to="636236894"/>
    <trip id="bus205" type="bus_bus" depart="156.80" departLane="best" from="25583989-AddedOffRampEdge" to="107586296#5"/>
    <trip id="bus206" type="bus_bus" depart="157.57" departLane="best" from="581117550#0" to="-107586296#1"/>
    <trip id="bus207" type="bus_bus" depart="158.33" departLane="best" departSpeed="max" from="672979238#0" to="679999361#11"/>
    <trip id="bus208" type="bus_bus" depart="159.10" departLane="best" from="-679999363#1" to="237905380#5"/>
    <trip id="bus211" type="bus_bus" depart="161.39" departLane="best" from="238956801" to="69347634#4"/>
    <trip id="bus213" type="bus_bus" depart="162.92" departLane="best" from="498477955#1" to="974372178#1"/>
    <trip id="bus215" type="bus_bus" depart="164.45" departLane="best" departSpeed="max" from="636258633#0" to="328900405#7"/>
    <trip id="bus216" type="bus_bus" depart="165.22" departLane="best" from="773895043#0-AddedOffRampEdge" to="488552161#6"/>
    <trip id="bus217" type="bus_bus" depart="165.98" departLane="best" from="96326549" to="636485905"/>
    <trip id="bus218" type="bus_bus" depart="166.74" departLane="best" from="25447638#3" to="107586321#0"/>
    <trip id="bus219" type="bus_bus" depart="167.51" departLane="best" departSpeed="max" from="1052247917#0" to="565485201#5"/>
    <trip id="bus220" type="bus_bus" depart="168.27" departLane="best" from="680992417#4" to="330461433#5"/>
    <trip id="bus221" type="bus_bus" depart="169.04" departLane="best" from="563883392#11" to="165265362"/>
    <trip id="bus222" type="bus_bus" depart="169.80" departLane="best" departSpeed="max" from="-533894266#3" to="182367022#0"/>
    <trip id="bus223" type="bus_bus" depart="170.57" departLane="best" from="1055022196#7" to="208128052#9"/>
    <trip id="bus224" type="bus_bus" depart="171.33" departLane="best" from="329066212#2" to="1049950454#0"/>
    <trip id="bus225" type="bus_bus" depart="172.10" departLane="best" departSpeed="max" from="1051539560#0" to="633620768"/>
    <trip id="bus226" type="bus_bus" depart="172.86" departLane="best" from="636236989#1" to="-636237025"/>
    <trip id="bus227" type="bus_bus" depart="173.63" departLane="best" from="232420298" to="488272003#3"/>
    <trip id="bus229" type="bus_bus" depart="175.16" departLane="best" departSpeed="max" from="233713926#0" to="953806720#1"/>
    <trip id="bus230" type="bus_bus" depart="175.92" departLane="best" from="497373343" to="636236882"/>
    <trip id="bus232" type="bus_bus" depart="177.45" departLane="best" from="231067709#2" to="-107586296#1"/>
    <trip id="bus233" type="bus_bus" depart="178.22" departLane="best" from="208128051#0" to="640221834#2"/>
    <trip id="bus234" type="bus_bus" depart="178.98" departLane="best" departSpeed="max" from="862777463#0" to="974372178#13"/>
    <trip id="bus235" type="bus_bus" depart="179.75" departLane="best" departSpeed="max" from="233713926#0" to="636485906"/>
    <trip id="bus236" type="bus_bus" depart="180.51" departLane="best" from="330461433#11-AddedOnRampEdge" to="556707372#5"/>
    <trip id="bus237" type="bus_bus" depart="181.28" departLane="best" from="1050942998#0" to="1055022196#7-AddedOnRampEdge"/>
    <trip id="bus238" type="bus_bus" depart="182.04" departLane="best" from="233815054#2" to="-226526602#1"/>
    <trip id="bus239" type="bus_bus" depart="182.81" departLane="best" from="183402036#0" to="586589637#6"/>
    <trip id="bus241" type="bus_bus" depart="184.34" departLane="best" from="25447619#2-AddedOffRampEdge" to="1031889490#1-AddedOffRampEdge"/>
    <trip id="bus242" type="bus_bus" depart="185.10" departLane="best" departSpeed="max" from="556707386#0" to="-226526599"/>
    <trip id="bus243" type="bus_bus" depart="185.87" departLane="best" from="231901939#9-AddedOffRampEdge" to="51191097#2"/>
    <trip id="bus244" type="bus_bus" depart="186.63" departLane="best" from="-208128055#4" to="566000433#4"/>
    <trip id="bus245" type="bus_bus" depart="187.40" departLane="best" departSpeed="max" from="-96392614" to="25603918#0"/>
    <trip id="bus246" type="bus_bus" depart="188.16" departLane="best" from="-25447638#4" to="232332587#0"/>
    <trip id="bus247" type="bus_bus" depart="188.93" departLane="best" from="1050921385" to="219961340#0"/>
    <trip id="bus248" type="bus_bus" depart="189.69" departLane="best" departSpeed="max" from="680992417#0" to="232332587#0"/>
    <trip id="bus249" type="bus_bus" depart="190.46" departLane="best" from="672979261" to="739020657"/>
    <trip id="bus250" type="bus_bus" depart="191.22" departLane="best" from="1052247919#1" to="-863485649"/>
    <trip id="bus251" type="bus_bus" depart="191.99" departLane="best" from="-107586330" to="446804371#1"/>
    <trip id="bus253" type="bus_bus" depart="193.52" departLane="best" from="570468188#3" to="680992418#1-AddedOffRampEdge"/>
    <trip id="bus255" type="bus_bus" depart="195.05" departLane="best" from="974379910#1" to="1052247919#4"/>
    <trip id="bus256" type="bus_bus" depart="195.81" departLane="best" from="-107586340#4" to="1050765300"/>
    <trip id="bus257" type="bus_bus" depart="196.58" departLane="best" from="-778460597#5" to="585481081#0-AddedOffRampEdge"/>
    <trip id="bus258" type="bus_bus" depart="197.34" departLane="best" from="446481980#0" to="1055022196#3"/>
    <trip id="bus259" type="bus_bus" depart="198.11" departLane="best" from="636236959" to="674827527#2"/>
    <trip id="bus260" type="bus_bus" depart="198.87" departLane="best" from="101316836#0" to="556707372#6-AddedOnRampEdge"/>
    <trip id="bus261" type="bus_bus" depart="199.63" departLane="best" departSpeed="max" from="672979238#0" to="101317827"/>
    <trip id="bus262" type="bus_bus" depart="200.40" departLane="best" from="773895012#0-AddedOffRampEdge" to="977510122#0"/>
    <trip id="bus263" type="bus_bus" depart="201.16" departLane="best" departSpeed="max" from="165265281#0" to="586589637#6"/>
    <trip id="bus265" type="bus_bus" depart="202.69" departLane="best" departSpeed="max" from="636237024" to="-778460597#5"/>
    <trip id="bus266" type="bus_bus" depart="203.46" departLane="best" from="636236908" to="565480536#4"/>
    <trip id="bus268" type="bus_bus" depart="204.99" departLane="best" from="862777455-AddedOffRampEdge" to="540214261#1"/>
    <trip id="bus269" type="bus_bus" depart="205.75" departLane="best" departSpeed="max" from="-773895039" to="987583392"/>
    <trip id="bus270" type="bus_bus" depart="206.52" departLane="best" from="689220805#0" to="226526602#3"/>
    <trip id="bus272" type="bus_bus" depart="208.05" departLane="best" from="264306568#1-AddedOffRampEdge" to="220882378#0"/>
    <trip id="bus273" type="bus_bus" depart="208.81" departLane="best" from="862777454" to="734084465"/>
    <trip id="bus274" type="bus_bus" depart="209.58" departLane="best" from="-679999361#5" to="974379911-AddedOffRampEdge"/>
    <trip id="bus275" type="bus_bus" depart="210.34" departLane="best" from="565480543#1-AddedOnRampEdge" to="736676594"/>
    <trip id="bus276" type="bus_bus" depart="211.11" departLane="best" from="636236996#0" to="238956805"/>
    <trip id="bus277" type="bus_bus" depart="211.87" departLane="best" departSpeed="max" from="636282361" to="977510122#0"/>
    <trip id="bus278" type="bus_bus" depart="212.64" departLane="best" from="1055022196#2" to="69347639#1"/>
    <trip id="bus279" type="bus_bus" depart="213.40" departLane="best" from="329066210" to="26968030#1-AddedOnRampEdge"/>
    <trip id="bus280" type="bus_bus" depart="214.17" departLane="best" from="233815054#2" to="636237025"/>
    <trip id="bus281" type="bus_bus" depart="214.93" departLane="best" from="1055022195#1-AddedOffRampEdge" to="778460597#15"/>
    <trip id="bus282" type="bus_bus" depart="215.70" departLane="best" from="773895043#0-AddedOffRampEdge" to="-935095335"/>
    <trip id="bus283" type="bus_bus" depart="216.46" departLane="best" from="913590442#2" to="107586296#5"/>
    <trip id="bus284" type="bus_bus" depart="217.23" departLane="best" from="25447619#14-AddedOffRampEdge" to="556707385"/>
    <trip id="bus285" type="bus_bus" depart="217.99" departLane="best" from="231067709#0-AddedOffRampEdge" to="-226526602#1"/>
    <trip id="bus287" type="bus_bus" depart="219.52" departLane="best" from="1050921386#0" to="690978992#1"/>
    <trip id="bus288" type="bus_bus" depart="220.29" departLane="best" from="187408909#0" to="894305094#0-AddedOnRampEdge"/>
    <trip id="bus289" type="bus_bus" depart="221.05" departLane="best" from="636236963#0" to="165265375#0-AddedOffRampEdge"/>
    <trip id="bus290" type="bus_bus" depart="221.82" departLane="best" departSpeed="max" from="-107586296#5" to="974372177#1"/>
    <trip id="bus291" type="bus_bus" depart="222.58" departLane="best" departSpeed="max" from="-536237115#4" to="636236984#0"/>
    <trip id="bus292" type="bus_bus" depart="223.35" departLane="best" departSpeed="max" from="255634810#0" to="666569440#1"/>
    <trip id="bus293" type="bus_bus" depart="224.11" departLane="best" from="636236908" to="570468184#4"/>
    <trip id="bus294" type="bus_bus" depart="224.88" departLane="best" departSpeed="max" from="255634810#0" to="689220805#5"/>
    <trip id="bus295" type="bus_bus" depart="225.64" departLane="best" departSpeed="max" from="-540214262" to="1055022199-AddedOffRampEdge"/>
    <trip id="bus296" type="bus_bus" depart="226.41" departLane="best" from="636236921#0" to="203270131#9"/>
    <trip id="bus297" type="bus_bus" depart="227.17" departLane="best" from="488882769#0" to="264306568#1-AddedOffRampEdge"/>