<?xml version="1.0" encoding="UTF-8"?>


<routes xmlns:xsi="http://www.w3.org/2001/XMLSchema-instance" xsi:noNamespaceSchemaLocation="http://sumo.dlr.de/xsd/routes_file.xsd">
    <vType id="truck_truck" vClass="truck"/>
    <trip id="truck0" type="truck_truck" depart="0.00" departLane="best" from="565485201#1" to="-219961340#2"/>
    <trip id="truck1" type="truck_truck" depart="1.34" departLane="best" from="1055022199-AddedOffRampEdge" to="1057494134#1"/>
    <trip id="truck2" type="truck_truck" depart="2.68" departLane="best" from="953806722#1" to="-935095335"/>
    <trip id="truck3" type="truck_truck" depart="4.02" departLane="best" departSpeed="max" from="233713926#0" to="-226526602#1"/>
    <trip id="truck4" type="truck_truck" depart="5.36" departLane="best" from="1050942993#3" to="328900405#6"/>
    <trip id="truck5" type="truck_truck" depart="6.70" departLane="best" from="-208128055#10" to="1052247919#4"/>
    <trip id="truck6" type="truck_truck" depart="8.04" departLane="best" from="570468188#0" to="488273277#2"/>
    <trip id="truck7" type="truck_truck" depart="9.38" departLane="best" from="1050942996#0" to="533894270#1"/>
    <trip id="truck8" type="truck_truck" depart="10.72" departLane="best" from="736676593#7" to="-107586296#1"/>
    <trip id="truck9" type="truck_truck" depart="12.05" departLane="best" from="721523326" to="636236894"/>
    <trip id="truck10" type="truck_truck" depart="13.39" departLane="best" from="183402036#6-AddedOnRampEdge" to="1050921380#0"/>
    <trip id="truck11" type="truck_truck" depart="14.73" departLane="best" from="982037158-AddedOffRampEdge" to="220657249#2"/>
    <trip id="truck12" type="truck_truck" depart="16.07" departLane="best" departSpeed="max" from="-540214262" to="101316531"/>
    <trip id="truck13" type="truck_truck" depart="17.41" departLane="best" from="734931199" to="636237020#0"/>
    <trip id="truck14" type="truck_truck" depart="18.75" departLane="best" from="227975040#0" to="488882755#4"/>
    <trip id="truck15" type="truck_truck" depart="20.09" departLane="best" departSpeed="max" from="773895043#0" to="563883392#12"/>
    <trip id="truck16" type="truck_truck" depart="21.43" departLane="best" from="894305092#1" to="533466793#4"/>
    <trip id="truck17" type="truck_truck" depart="22.77" departLane="best" from="636236981" to="-497373357#2"/>
    <trip id="truck18" type="truck_truck" depart="24.11" departLane="best" from="1051266595-AddedOnRampEdge" to="182370605#0"/>
    <trip id="truck19" type="truck_truck" depart="25.45" departLane="best" from="-533894268#1" to="1058988266"/>
    <trip id="truck20" type="truck_truck" depart="26.79" departLane="best" from="-640221834#1" to="165265378#2"/>
    <trip id="truck22" type="truck_truck" depart="29.47" departLane="best" departSpeed="max" from="220885830#0" to="1052673737#2"/>
    <trip id="truck23" type="truck_truck" depart="30.81" departLane="best" from="1055022193#1" to="972622896#4"/>
    <trip id="truck24" type="truck_truck" depart="32.15" departLane="best" from="570468184#1-AddedOffRampEdge" to="556707376"/>
    <trip id="truck25" type="truck_truck" depart="33.49" departLane="best" from="101317067#1" to="636237018"/>
    <trip id="truck26" type="truck_truck" depart="34.83" departLane="best" from="101316762#19" to="232332587#0"/>
    <trip id="truck28" type="truck_truck" depart="37.50" departLane="best" from="393898830#1" to="633620700#1"/>
    <trip id="truck29" type="truck_truck" depart="38.84" departLane="best" departSpeed="max" from="833749485#0" to="679999362#7"/>
    <trip id="truck30" type="truck_truck" depart="40.18" departLane="best" departSpeed="max" from="1051539560#0" to="-231408851#2"/>
    <trip id="truck31" type="truck_truck" depart="41.52" departLane="best" departSpeed="max" from="165265281#0" to="165265283#1"/>
    <trip id="truck32" type="truck_truck" depart="42.86" departLane="best" from="1050921384#0-AddedOnRampEdge" to="972622978#0"/>
    <trip id="truck34" type="truck_truck" depart="45.54" departLane="best" from="963575161#0-AddedOffRampEdge" to="25529188#6"/>
    <trip id="truck35" type="truck_truck" depart="46.88" departLane="best" from="1055022190#1" to="107586297#2"/>
    <trip id="truck36" type="truck_truck" depart="48.22" departLane="best" from="413035251#4" to="107586326#1"/>
    <trip id="truck37" type="truck_truck" depart="49.56" departLane="best" from="489105658#0" to="916419668#3"/>
    <trip id="truck38" type="truck_truck" depart="50.90" departLane="best" from="231988173#0" to="1055022196#7-AddedOffRampEdge"/>
    <trip id="truck40" type="truck_truck" depart="53.58" departLane="best" departSpeed="max" from="-540214262" to="-497373357#2"/>
    <trip id="truck41" type="truck_truck" depart="54.92" departLane="best" from="-707365794#6" to="565480536#0"/>
    <trip id="truck42" type="truck_truck" depart="56.26" departLane="best" from="69347634#5" to="237904515"/>
    <trip id="truck43" type="truck_truck" depart="57.60" departLane="best" from="-497373357#5" to="232420298"/>
    <trip id="truck45" type="truck_truck" depart="60.27" departLane="best" departSpeed="max" from="995989148" to="788343042"/>
    <trip id="truck46" type="truck_truck" depart="61.61" departLane="best" departSpeed="max" from="-107586296#5" to="636236981"/>
    <trip id="truck47" type="truck_truck" depart="62.95" departLane="best" from="633620767#0-AddedOffRampEdge" to="446481980#6"/>
    <trip id="truck48" type="truck_truck" depart="64.29" departLane="best" from="1055022193#1" to="566000431#1"/>
    <trip id="truck50" type="truck_truck" depart="66.97" departLane="best" departSpeed="max" from="237905396" to="974372178#13"/>
    <trip id="truck51" type="truck_truck" depart="68.31" departLane="best" from="910067112" to="107586340#1"/>
    <trip id="truck52" type="truck_truck" depart="69.65" departLane="best" from="256666750#2" to="1050943015#2"/>
    <trip id="truck53" type="truck_truck" depart="70.99" departLane="best" departSpeed="max" from="963575161#0" to="862777463#1"/>
    <trip id="truck54" type="truck_truck" depart="72.33" departLane="best" departSpeed="max" from="107586314#0" to="565485208#0"/>
    <trip id="truck55" type="truck_truck" depart="73.67" departLane="best" from="533912104#2" to="1050765300"/>
    <trip id="truck56" type="truck_truck" depart="75.01" departLane="best" departSpeed="max" from="680992417#0" to="446804371#1"/>
    <trip id="truck57" type="truck_truck" depart="76.35" departLane="best" from="686238257#23-AddedOnRampEdge" to="403142813#3"/>
    <trip id="truck58" type="truck_truck" depart="77.69" departLane="best" from="-101316678#4" to="208128062"/>
    <trip id="truck60" type="truck_truck" depart="80.37" departLane="best" departSpeed="max" from="911272945" to="739020657"/>
    <trip id="truck61" type="truck_truck" depart="81.71" departLane="best" departSpeed="max" from="107586340#0" to="-540214261#3"/>
    <trip id="truck62" type="truck_truck" depart="83.05" departLane="best" departSpeed="max" from="911272945" to="972623148#0"/>
    <trip id="truck63" type="truck_truck" depart="84.38" departLane="best" departSpeed="max" from="-536237115#4" to="27006844#1"/>
    <trip id="truck64" type="truck_truck" depart="85.72" departLane="best" from="-529249851#6" to="671753468#2"/>
    <trip id="truck65" type="truck_truck" depart="87.06" departLane="best" from="25447638#2" to="488882755#2"/>
    <trip id="truck66" type="truck_truck" depart="88.40" departLane="best" from="1055022190#1" to="862777463#1"/>
    <trip id="truck67" type="truck_truck" depart="89.74" departLane="best" from="233713926#1" to="1055022190#0"/>
    <trip id="truck68" type="truck_truck" depart="91.08" departLane="best" from="329066211" to="636237020#2"/>
    <trip id="truck69" type="truck_truck" depart="92.42" departLane="best" departSpeed="max" from="1050765262#0" to="208128050#10-AddedOffRampEdge"/>
    <trip id="truck71" type="truck_truck" depart="95.10" departLane="best" from="234218185#1" to="330461433#11-AddedOffRampEdge"/>
    <trip id="truck72" type="truck_truck" depart="96.44" departLane="best" departSpeed="max" from="-773895039" to="1057494135#1"/>
    <trip id="truck74" type="truck_truck" depart="99.12" departLane="best" departSpeed="max" from="1051539560#0" to="1055022196#8"/>
    <trip id="truck75" type="truck_truck" depart="100.46" departLane="best" departSpeed="max" from="-529249851#8" to="565480542#1"/>
    <trip id="truck76" type="truck_truck" depart="101.80" departLane="best" departSpeed="max" from="1051539560#0" to="953806722#0"/>
    <trip id="truck78" type="truck_truck" depart="104.48" departLane="best" from="1051832577" to="585481080#0"/>
    <trip id="truck79" type="truck_truck" depart="105.82" departLane="best" from="1050921394#1" to="1031889491#2"/>
    <trip id="truck81" type="truck_truck" depart="108.49" departLane="best" departSpeed="max" from="25447637#0" to="686238257#13"/>
    <trip id="truck82" type="truck_truck" depart="109.83" departLane="best" from="736676593#0" to="1052075128#1"/>
    <trip id="truck83" type="truck_truck" depart="111.17" departLane="best" departSpeed="max" from="-636485905" to="237905382"/>
    <trip id="truck84" type="truck_truck" depart="112.51" departLane="best" from="233713926#11" to="256666742#4"/>
    <trip id="truck86" type="truck_truck" depart="115.19" departLane="best" from="996007441#0" to="101316643#1-AddedOnRampEdge"/>
    <trip id="truck88" type="truck_truck" depart="117.87" departLane="best" from="894305092#1" to="107586297#2"/>
    <trip id="truck89" type="truck_truck" depart="119.21" departLane="best" departSpeed="max" from="1049950452" to="25447637#1"/>
    <trip id="truck90" type="truck_truck" depart="120.55" departLane="best" departSpeed="max" from="233713926#0" to="165265387"/>
    <trip id="truck91" type="truck_truck" depart="121.89" departLane="best" from="234738422#0" to="788343043"/>
    <trip id="truck92" type="truck_truck" depart="123.23" departLane="best" from="330461433#4-AddedOffRampEdge" to="-529249851#3"/>
    <trip id="truck94" type="truck_truck" depart="125.91" departLane="best" from="987583391" to="963575158#1"/>
    <trip id="truck95" type="truck_truck" depart="127.25" departLane="best" from="862777451#3" to="1050942995#0"/>
    <trip id="truck96" type="truck_truck" depart="128.59" departLane="best" from="25529188#1" to="1055022192#0"/>
    <trip id="truck99" type="truck_truck" depart="132.60" departLane="best" from="1055022190#1" to="686238257#12-AddedOnRampEdge"/>
    <trip id="truck100" type="truck_truck" depart="133.94" departLane="best" from="982037158-AddedOffRampEdge" to="996890850"/>
    <trip id="truck101" type="truck_truck" depart="135.28" departLane="best" from="377818293" to="636236963#0"/>
    <trip id="truck102" type="truck_truck" depart="136.62" departLane="best" from="101316606#1" to="183402036#13"/>
    <trip id="truck103" type="truck_truck" depart="137.96" departLane="best" from="987583389#0" to="533466793#4"/>
    <trip id="truck105" type="truck_truck" depart="140.64" departLane="best" departSpeed="max" from="264306568#0" to="778460597#15"/>
    <trip id="truck106" type="truck_truck" depart="141.98" departLane="best" departSpeed="max" from="101316762#0" to="974379911-AddedOffRampEdge"/>
    <trip id="truck107" type="truck_truck" depart="143.32" departLane="best" from="-533894270#0" to="1051817801"/>
    <trip id="truck109" type="truck_truck" depart="146.00" departLane="best" from="1051817801" to="1017489393#2-AddedOnRampEdge"/>
    <trip id="truck110" type="truck_truck" depart="147.34" departLane="best" from="953806720#0" to="107586297#1"/>
    <trip id="truck111" type="truck_truck" depart="148.68" departLane="best" from="498477952#1-AddedOnRampEdge" to="563883392#15"/>
    <trip id="truck112" type="truck_truck" depart="150.02" departLane="best" departSpeed="max" from="233713926#0" to="533679821#2"/>
    <trip id="truck114" type="truck_truck" depart="152.70" departLane="best" departSpeed="max" from="1050765263#0" to="636236962#0"/>
    <trip id="truck116" type="truck_truck" depart="155.37" departLane="best" from="585742993" to="187408909#3"/>
    <trip id="truck117" type="truck_truck" depart="156.71" departLane="best" from="165265281#3" to="640220688#0"/>
    <trip id="truck118" type="truck_truck" depart="158.05" departLane="best" departSpeed="max" from="-529249851#8" to="25529188#5"/>
    <trip id="truck119" type="truck_truck" depart="159.39" departLane="best" departSpeed="max" from="996890881#0" to="996890854"/>
    <trip id="truck120" type="truck_truck" depart="160.73" departLane="best" from="-529249852#2" to="1055022191#0"/>
    <trip id="truck121" type="truck_truck" depart="162.07" departLane="best" from="1055022190#1" to="96392614"/>
    <trip id="truck122" type="truck_truck" depart="163.41" departLane="best" from="913590441#1" to="894305093"/>
    <trip id="truck123" type="truck_truck" depart="164.75" departLane="best" departSpeed="max" from="220885830#0" to="1050921384#0-AddedOnRampEdge"/>
    <trip id="truck124" type="truck_truck" depart="166.09" departLane="best" from="780057682#0" to="636236903"/>
    <trip id="truck125" type="truck_truck" depart="167.43" departLane="best" from="533976903" to="995989151"/>
    <trip id="truck126" type="truck_truck" depart="168.77" departLane="best" from="580915670#0" to="-107586296#1"/>
    <trip id="truck127" type="truck_truck" depart="170.11" departLane="best" departSpeed="max" from="773895012#0" to="187408909#0"/>
    <trip id="truck128" type="truck_truck" depart="171.45" departLane="best" from="583068251#1-AddedOnRampEdge" to="972622953"/>
    <trip id="truck129" type="truck_truck" depart="172.79" departLane="best" departSpeed="max" from="-96392614" to="101317827"/>
    <trip id="truck130" type="truck_truck" depart="174.13" departLane="best" from="-679999363#1" to="488882755#4"/>
    <trip id="truck131" type="truck_truck" depart="175.47" departLane="best" from="1055022196#7-AddedOffRampEdge" to="556707372#6"/>
    <trip id="truck132" type="truck_truck" depart="176.81" departLane="best" departSpeed="max" from="636237024" to="1052673725#2-AddedOnRampEdge"/>
    <trip id="truck133" type="truck_truck" depart="178.15" departLane="best" from="565480536#3" to="107586340#4"/>
    <trip id="truck134" type="truck_truck" depart="179.48" departLane="best" from="25529188#6-AddedOnRampEdge" to="953806722#0"/>
    <trip id="truck135" type="truck_truck" depart="180.82" departLane="best" from="833749485#2" to="101316004#0-AddedOnRampEdge"/>
    <trip id="truck136" type="truck_truck" depart="182.16" departLane="best" from="233713926#11" to="165265375#0-AddedOffRampEdge"/>
    <trip id="truck137" type="truck_truck" depart="183.50" departLane="best" departSpeed="max" from="-1050942998#1" to="679999361#11"/>
    <trip id="truck138" type="truck_truck" depart="184.84" departLane="best" from="565480544" to="107586323"/>
    <trip id="truck139" type="truck_truck" depart="186.18" departLane="best" from="638899189" to="488882755#4"/>
    <trip id="truck140" type="truck_truck" depart="187.52" departLane="best" from="233713929#1-AddedOnRampEdge" to="-107586297#1"/>
    <trip id="truck141" type="truck_truck" depart="188.86" departLane="best" from="-533894266#1" to="894814744-AddedOffRampEdge"/>
    <trip id="truck142" type="truck_truck" depart="190.20" departLane="best" departSpeed="max" from="96327306" to="488273277#3"/>
    <trip id="truck143" type="truck_truck" depart="191.54" departLane="best" from="101316033#3-AddedOffRampEdge" to="1031889490#1"/>
    <trip id="truck144" type="truck_truck" depart="192.88" departLane="best" departSpeed="max" from="107586340#0" to="916419668#6"/>
    <trip id="truck146" type="truck_truck" depart="195.56" departLane="best" departSpeed="max" from="1052247917#0" to="101316762#20"/>
    <trip id="truck147" type="truck_truck" depart="196.90" departLane="best" from="686238257#6" to="894814745"/>
    <trip id="truck149" type="truck_truck" depart="199.58" departLane="best" from="101316606#0" to="96392614"/>
    <trip id="truck150" type="truck_truck" depart="200.92" departLane="best" from="894305095#5-AddedOffRampEdge" to="984908601#4"/>
    <trip id="truck151" type="truck_truck" depart="202.26" departLane="best" departSpeed="max" from="770697248" to="894305095#5"/>
    <trip id="truck152" type="truck_truck" depart="203.59" departLane="best" from="-208128052#5" to="636282358#1"/>
    <trip id="truck153" type="truck_truck" depart="204.93" departLane="best" from="182370599#0" to="96392614"/>
    <trip id="truck154" type="truck_truck" depart="206.27" departLane="best" departSpeed="max" from="770697248" to="143527684"/>
    <trip id="truck155" type="truck_truck" depart="207.61" departLane="best" from="689220808#8" to="101317008"/>
    <trip id="truck156" type="truck_truck" depart="208.95" departLane="best" departSpeed="max" from="895941576" to="783261470#1"/>
    <trip id="truck157" type="truck_truck" depart="210.29" departLane="best" from="1050943006" to="733502963#1"/>
    <trip id="truck158" type="truck_truck" depart="211.63" departLane="best" from="239379584#0" to="203270131#9"/>
    <trip id="truck159" type="truck_truck" depart="212.97" departLane="best" from="69347635#6" to="1057494135#1-AddedOnRampEdge"/>
    <trip id="truck160" type="truck_truck" depart="214.31" departLane="best" from="-208128052#1" to="1052247917#1"/>
    <trip id="truck161" type="truck_truck" depart="215.65" departLane="best" from="165265404#3" to="862777450"/>
    <trip id="truck162" type="truck_truck" depart="216.99" departLane="best" from="984908602#5" to="165265388"/>
    <trip id="truck163" type="truck_truck" depart="218.33" departLane="best" from="565485201#5" to="233713926#7"/>
    <trip id="truck164" type="truck_truck" depart="219.67" departLane="best" from="995989153#1" to="446481980#1"/>
    <trip id="truck166" type="truck_truck" depart="222.35" departLane="best" departSpeed="max" from="995989148" to="1050943015#2"/>
    <trip id="truck167" type="truck_truck" depart="223.69" departLane="best" departSpeed="max" from="984908602#0" to="1075935945"/>
    <trip id="truck168" type="truck_truck" depart="225.03" departLane="best" from="-689220805#6" to="238926552"/>
    <trip id="truck170" type="truck_truck" depart="227.70" departLane="best" from="533894248#0" to="329066213#4-AddedOnRampEdge"/>
    <trip id="truck172" type="truck_truck" depart="230.38" departLane="best" from="1052247923#1" to="636236955"/>
    <trip id="truck173" type="truck_truck" depart="231.72" departLane="best" from="-1050942998#0" to="963575158#1"/>
    <trip id="truck174" type="truck_truck" depart="233.06" departLane="best" from="328900405#7" to="636236975"/>
    <trip id="truck175" type="truck_truck" depart="234.40" departLane="best" from="638899193" to="585481081#0-AddedOffRampEdge"/>
    <trip id="truck176" type="truck_truck" depart="235.74" departLane="best" from="220653222#0" to="-69347868#6"/>
    <trip id="truck177" type="truck_truck" depart="237.08" departLane="best" from="585481080#0" to="219961340#8"/>
    <trip id="truck179" type="truck_truck" depart="239.76" departLane="best" from="636237025" to="187408910#0"/>
    <trip id="truck180" type="truck_truck" depart="241.10" departLane="best" from="107586340#4" to="233713930#4"/>
    <trip id="truck182" type="truck_truck" depart="243.78" departLane="best" from="-783261470#0" to="235480768#3-AddedOnRampEdge"/>
    <trip id="truck185" type="truck_truck" depart="247.80" departLane="best" from="107586314#1" to="488552161#4-AddedOnRampEdge"/>
    <trip id="truck186" type="truck_truck" depart="249.14" departLane="best" from="-101316678#4" to="182367022#1"/>
    <trip id="truck187" type="truck_truck" depart="250.48" departLane="best" from="233713930#1" to="533466793#4"/>
    <trip id="truck188" type="truck_truck" depart="251.81" departLane="best" from="580915672#0" to="25603923#1-AddedOnRampEdge"/>
    <trip id="truck189" type="truck_truck" depart="253.15" departLane="best" from="234239339#1" to="1055022192#0"/>
    <trip id="truck190" type="truck_truck" depart="254.49" departLane="best" departSpeed="max" from="25447637#0" to="928731657"/>
    <trip id="truck192" type="truck_truck" depart="257.17" departLane="best" from="-533912104#4" to="329066213#7"/>
    <trip id="truck193" type="truck_truck" depart="258.51" departLane="best" from="563883392#5-AddedOnRampEdge" to="220657249#2"/>
    <trip id="truck194" type="truck_truck" depart="259.85" departLane="best" departSpeed="max" from="773895012#0" to="638899195"/>
    <trip id="truck195" type="truck_truck" depart="261.19" departLane="best" from="591151424" to="1057494135#1"/>
    <trip id="truck196" type="truck_truck" depart="262.53" departLane="best" departSpeed="max" from="1050765261" to="-208128058#3"/>
    <trip id="truck197" type="truck_truck" depart="263.87" departLane="best" from="1052075130" to="264306572#2"/>
    <trip id="truck198" type="truck_truck" depart="265.21" departLane="best" from="862777455" to="-771755299"/>
    <trip id="truck200" type="truck_truck" depart="267.89" departLane="best" from="1049950457-AddedOffRampEdge" to="636236882"/>
    <trip id="truck201" type="truck_truck" depart="269.23" departLane="best" from="255636559" to="107586296#5"/>
    <trip id="truck202" type="truck_truck" depart="270.57" departLane="best" from="580915672#4-AddedOffRampEdge" to="-107586296#1"/>
    <trip id="truck203" type="truck_truck" depart="271.91" departLane="best" from="672979238#1" to="679999361#11"/>
    <trip id="truck204" type="truck_truck" depart="273.25" departLane="best" from="-679999363#0" to="237905380#2"/>
    <trip id="truck206" type="truck_truck" depart="275.92" departLane="best" departSpeed="max" from="1052247917#0" to="777563988"/>
    <trip id="truck207" type="truck_truck" depart="277.26" departLane="best" from="238926552" to="69347634#5"/>
    <trip id="truck209" type="truck_truck" depart="279.94" departLane="best" from="498477953#2" to="974372178#1"/>
    <trip id="truck211" type="truck_truck" depart="282.62" departLane="best" departSpeed="max" from="636237024" to="328900405#4"/>
    <trip id="truck212" type="truck_truck" depart="283.96" departLane="best" from="773895043#4" to="488552161#4"/>
    <trip id="truck213" type="truck_truck" depart="285.30" departLane="best" from="96326549" to="636485905"/>
    <trip id="truck214" type="truck_truck" depart="286.64" departLane="best" from="25447638#0" to="107586321#0"/>
    <trip id="truck215" type="truck_truck" depart="287.98" departLane="best" departSpeed="max" from="1052247917#0" to="565485201#2"/>
    <trip id="truck216" type="truck_truck" depart="289.32" departLane="best" from="680992417#5" to="330461433#4-AddedOffRampEdge"/>
    <trip id="truck217" type="truck_truck" depart="290.66" departLane="best" from="563883392#1" to="165265360"/>
    <trip id="truck218" type="truck_truck" depart="292.00" departLane="best" departSpeed="max" from="-533894266#3" to="182180231"/>
    <trip id="truck219" type="truck_truck" depart="293.34" departLane="best" from="1055022196#6" to="208128052#6"/>
    <trip id="truck220" type="truck_truck" depart="294.68" departLane="best" from="329066212#1" to="1049950453#1"/>
    <trip id="truck221" type="truck_truck" depart="296.02" departLane="best" departSpeed="max" from="1051539560#0" to="633620767#6"/>
    <trip id="truck222" type="truck_truck" depart="297.36" departLane="best" from="636236987#1" to="-636237025"/>
    <trip id="truck225" type="truck_truck" depart="301.37" departLane="best" departSpeed="max" from="233713926#0" to="953806720#1"/>
    <trip id="truck226" type="truck_truck" depart="302.71" departLane="best" from="489105647#1" to="633620768-AddedOnRampEdge"/>
    <trip id="truck228" type="truck_truck" depart="305.39" departLane="best" from="231067709#1" to="-107586296#1"/>
    <trip id="truck230" type="truck_truck" depart="308.07" departLane="best" departSpeed="max" from="862777463#0" to="974372178#13"/>
    <trip id="truck231" type="truck_truck" depart="309.41" departLane="best" from="232789554" to="636485906"/>
    <trip id="truck232" type="truck_truck" depart="310.75" departLane="best" from="330461433#11" to="556707372#0"/>
    <trip id="truck233" type="truck_truck" depart="312.09" departLane="best" from="1050942996#0" to="1055022196#7-AddedOffRampEdge"/>
    <trip id="truck234" type="truck_truck" depart="313.43" departLane="best" from="233815054#1-AddedOffRampEdge" to="-226526602#1"/>
    <trip id="truck235" type="truck_truck" depart="314.77" departLane="best" from="183400897" to="586589637#6"/>
    <trip id="truck237" type="truck_truck" depart="317.45" departLane="best" from="25447619#2" to="1031889490#1-AddedOffRampEdge"/>
    <trip id="truck238" type="truck_truck" depart="318.79" departLane="best" departSpeed="max" from="556707386#0" to="-226526599"/>
    <trip id="truck239" type="truck_truck" depart="320.13" departLane="best" from="231901939#8" to="498477955#2"/>
    <trip id="truck240" type="truck_truck" depart="321.47" departLane="best" from="-208128055#4" to="566000433#1"/>
    <trip id="truck241" type="truck_truck" depart="322.80" departLane="best" departSpeed="max" from="-96392614" to="25583989"/>
    <trip id="truck242" type="truck_truck" depart="324.14" departLane="best" from="-25447638#4" to="232332586#1-AddedOnRampEdge"/>
    <trip id="truck243" type="truck_truck" depart="325.48" departLane="best" departSpeed="max" from="680992417#0" to="232332586#1-AddedOnRampEdge"/>
    <trip id="truck244" type="truck_truck" depart="326.82" departLane="best" from="674023737" to="739020657"/>
    <trip id="truck245" type="truck_truck" depart="328.16" departLane="best" from="1052247918#4" to="-863485649"/>
    <trip id="truck246" type="truck_truck" depart="329.50" departLane="best" from="-107586330" to="446804371#1"/>
    <trip id="truck248" type="truck_truck" depart="332.18" departLane="best" from="570468188#0" to="683864491#0"/>
    <trip id="truck249" type="truck_truck" depart="333.52" departLane="best" from="974379911" to="1052247919#4"/>
    <trip id="truck250" type="truck_truck" depart="334.86" departLane="best" from="-107586340#4" to="1050765300"/>
    <trip id="truck251" type="truck_truck" depart="336.20" departLane="best" from="-778460597#2" to="585481080#1"/>
    <trip id="truck252" type="truck_truck" depart="337.54" departLane="best" from="636236957#3" to="679999329"/>
    <trip id="truck253" type="truck_truck" depart="338.88" departLane="best" from="101316762#9" to="556707372#6"/>
    <trip id="truck254" type="truck_truck" depart="340.22" departLane="best" departSpeed="max" from="672979238#0" to="101317827"/>
    <trip id="truck255" type="truck_truck" depart="341.56" departLane="best" from="773895012#0-AddedOffRampEdge" to="977510122#0"/>
    <trip id="truck256" type="truck_truck" depart="342.90" departLane="best" from="143527684" to="586589637#4"/>
    <trip id="truck258" type="truck_truck" depart="345.58" departLane="best" from="636237022#2" to="-778460597#2"/>
    <trip id="truck259" type="truck_truck" depart="346.91" departLane="best" from="636236902#2" to="565480536#0"/>
    <trip id="truck260" type="truck_truck" depart="348.25" departLane="best" from="-679999361#10" to="679999362#1"/>
    <trip id="truck262" type="truck_truck" depart="350.93" departLane="best" departSpeed="max" from="-773895039" to="987583392"/>
    <trip id="truck263" type="truck_truck" depart="352.27" departLane="best" from="689220805#0" to="226526595#2"/>
    <trip id="truck264" type="truck_truck" depart="353.61" departLane="best" from="233713929#3-AddedOffRampEdge" to="231901941#7"/>
    <trip id="truck265" type="truck_truck" depart="354.95" departLane="best" departSpeed="max" from="264306568#0" to="220882373"/>
    <trip id="truck266" type="truck_truck" depart="356.29" departLane="best" from="862777455" to="734084465"/>
    <trip id="truck267" type="truck_truck" depart="357.63" departLane="best" departSpeed="max" from="-679999361#11" to="974379911-AddedOffRampEdge"/>
    <trip id="truck270" type="truck_truck" depart="361.65" departLane="best" departSpeed="max" from="636282361" to="977510122#0"/>
    <trip id="truck271" type="truck_truck" depart="362.99" departLane="best" from="1055022196#1" to="69347639#1"/>
    <trip id="truck272" type="truck_truck" depart="364.33" departLane="best" from="328900405#7" to="26968030#0"/>
    <trip id="truck273" type="truck_truck" depart="365.67" departLane="best" from="233815054#1" to="636237022#2"/>
    <trip id="truck274" type="truck_truck" depart="367.01" departLane="best" from="1055022195#1" to="778460597#15"/>
    <trip id="truck275" type="truck_truck" depart="368.35" departLane="best" from="773895043#4" to="-935095335"/>
    <trip id="truck276" type="truck_truck" depart="369.69" departLane="best" from="913590442#2" to="107586296#5"/>
    <trip id="truck277" type="truck_truck" depart="371.02" departLane="best" from="25447619#13" to="556707383#2"/>
    <trip id="truck280" type="truck_truck" depart="375.04" departLane="best" from="1050921385" to="690978992#1"/>
    <trip id="truck281" type="truck_truck" depart="376.38" departLane="best" from="183402036#6-AddedOnRampEdge" to="894305094#0-AddedOnRampEdge"/>
    <trip id="truck282" type="truck_truck" depart="377.72" departLane="best" from="636236960" to="165265375#0"/>
    <trip id="truck283" type="truck_truck" depart="379.06" departLane="best" departSpeed="max" from="-107586296#5" to="974372177#1"/>
    <trip id="truck284" type="truck_truck" depart="380.40" departLane="best" departSpeed="max" from="-536237115#4" to="636236978"/>
    <trip id="truck285" type="truck_truck" depart="381.74" departLane="best" from="25529188#6-AddedOnRampEdge" to="666569440#1"/>
    <trip id="truck286" type="truck_truck" depart="383.08" departLane="best" from="636236902#2" to="570468184#2"/>
    <trip id="truck287" type="truck_truck" depart="384.42" departLane="best" departSpeed="max" from="255634810#0" to="689220805#6"/>
    <trip id="truck288" type="truck_truck" depart="385.76" departLane="best" departSpeed="max" from="-540214262" to="1055022199"/>