<?xml version="1.0" encoding="UTF-8"?>


<routes xmlns:xsi="http://www.w3.org/2001/XMLSchema-instance" xsi:noNamespaceSchemaLocation="http://sumo.dlr.de/xsd/routes_file.xsd">
    <vType id="veh_passenger" vClass="passenger"/>
    <trip id="veh0" type="veh_passenger" depart="0.00" departLane="best" from="633620700#0" to="-497373357#2"/>
    <trip id="veh1" type="veh_passenger" depart="0.36" departLane="best" from="107586297#0" to="1055022197#0"/>
    <trip id="veh2" type="veh_passenger" depart="0.71" departLane="best" from="679999362#0" to="633620767#5-AddedOffRampEdge"/>
    <trip id="veh3" type="veh_passenger" depart="1.07" departLane="best" departSpeed="max" from="963575161#0" to="1017489393#6"/>
    <trip id="veh4" type="veh_passenger" depart="1.43" departLane="best" from="25421075-AddedOffRampEdge" to="-533894268#0"/>
    <trip id="veh5" type="veh_passenger" depart="1.79" departLane="best" from="1052247917#1" to="377809340#1-AddedOnRampEdge"/>
    <trip id="veh6" type="veh_passenger" depart="2.14" departLane="best" from="-239379584#0" to="1052247923#2"/>
    <trip id="veh8" type="veh_passenger" depart="2.86" departLane="best" from="1052247918#1" to="563883392#17"/>
    <trip id="veh9" type="veh_passenger" depart="3.21" departLane="best" departSpeed="max" from="780526355#0" to="-107586319#6"/>
    <trip id="veh10" type="veh_passenger" depart="3.57" departLane="best" departSpeed="max" from="773895043#0" to="636236955-AddedOnRampEdge"/>
    <trip id="veh11" type="veh_passenger" depart="3.93" departLane="best" departSpeed="max" from="226526602#0" to="1050942998#1"/>
    <trip id="veh12" type="veh_passenger" depart="4.29" departLane="best" from="984908600" to="231405165#2"/>
    <trip id="veh13" type="veh_passenger" depart="4.64" departLane="best" departSpeed="max" from="101316762#0" to="1029213836#1-AddedOffRampEdge"/>
    <trip id="veh14" type="veh_passenger" depart="5.00" departLane="best" departSpeed="max" from="895941576" to="565485208#0-AddedOffRampEdge"/>
    <trip id="veh15" type="veh_passenger" depart="5.36" departLane="best" from="778460597#0" to="636481682"/>
    <trip id="veh16" type="veh_passenger" depart="5.71" departLane="best" departSpeed="max" from="487811125#0" to="984908600"/>
    <trip id="veh17" type="veh_passenger" depart="6.07" departLane="best" from="232789554" to="51191097#2"/>
    <trip id="veh19" type="veh_passenger" depart="6.79" departLane="best" from="935095338" to="556707372#6"/>
    <trip id="veh20" type="veh_passenger" depart="7.14" departLane="best" departSpeed="max" from="636258633#0" to="-894305090#2"/>
    <trip id="veh21" type="veh_passenger" depart="7.50" departLane="best" from="1052673725#1" to="183402036#12"/>
    <trip id="veh22" type="veh_passenger" depart="7.86" departLane="best" departSpeed="max" from="1006938317" to="1057602394#0"/>
    <trip id="veh24" type="veh_passenger" depart="8.57" departLane="best" from="585481138" to="232332586#1"/>
    <trip id="veh26" type="veh_passenger" depart="9.29" departLane="best" departSpeed="max" from="1066024789#0" to="974372178#0-AddedOnRampEdge"/>
    <trip id="veh27" type="veh_passenger" depart="9.64" departLane="best" from="633620701#4-AddedOnRampEdge" to="566000433#1"/>
    <trip id="veh30" type="veh_passenger" depart="10.72" departLane="best" departSpeed="max" from="996890848" to="583068249"/>
    <trip id="veh31" type="veh_passenger" depart="11.07" departLane="best" from="497373357#3" to="636236894"/>
    <trip id="veh32" type="veh_passenger" depart="11.43" departLane="best" from="894812096" to="686238257#5-AddedOnRampEdge"/>
    <trip id="veh33" type="veh_passenger" depart="11.79" departLane="best" from="1052673726" to="-556707386#0"/>
    <trip id="veh34" type="veh_passenger" depart="12.14" departLane="best" from="203270131#4" to="165265309"/>
    <trip id="veh36" type="veh_passenger" depart="12.86" departLane="best" from="96327304#1-AddedOnRampEdge" to="208128055#2"/>
    <trip id="veh37" type="veh_passenger" depart="13.22" departLane="best" from="633620767#2-AddedOnRampEdge" to="234238399"/>
    <trip id="veh38" type="veh_passenger" depart="13.57" departLane="best" departSpeed="max" from="972623145" to="27006844#1-AddedOnRampEdge"/>
    <trip id="veh39" type="veh_passenger" depart="13.93" departLane="best" from="1061374250" to="107586296#5"/>
    <trip id="veh41" type="veh_passenger" depart="14.64" departLane="best" departSpeed="max" from="556707386#0" to="96327304#1-AddedOnRampEdge"/>
    <trip id="veh43" type="veh_passenger" depart="15.36" departLane="best" departSpeed="max" from="101316762#0" to="-895941576"/>
    <trip id="veh44" type="veh_passenger" depart="15.72" departLane="best" from="101317852#0" to="581126440"/>
    <trip id="veh45" type="veh_passenger" depart="16.07" departLane="best" departSpeed="max" from="770697248" to="25447619#7"/>
    <trip id="veh46" type="veh_passenger" depart="16.43" departLane="best" departSpeed="max" from="-733502963#1" to="233713926#3"/>
    <trip id="veh48" type="veh_passenger" depart="17.14" departLane="best" departSpeed="max" from="995989149#0" to="895941572"/>
    <trip id="veh49" type="veh_passenger" depart="17.50" departLane="best" from="-107586340#5" to="636237022#1"/>
    <trip id="veh50" type="veh_passenger" depart="17.86" departLane="best" from="636236960" to="488882755#4"/>
    <trip id="veh51" type="veh_passenger" depart="18.22" departLane="best" departSpeed="max" from="1066024789#0" to="583068249"/>
    <trip id="veh52" type="veh_passenger" depart="18.57" departLane="best" from="101317865" to="25529188#3"/>
    <trip id="veh53" type="veh_passenger" depart="18.93" departLane="best" departSpeed="max" from="255634810#0" to="974379908#2"/>
    <trip id="veh55" type="veh_passenger" depart="19.65" departLane="best" from="329066212#3" to="1051817801"/>
    <trip id="veh56" type="veh_passenger" depart="20.00" departLane="best" departSpeed="max" from="972623145" to="916419668#11"/>
    <trip id="veh57" type="veh_passenger" depart="20.36" departLane="best" from="165265404#3-AddedOffRampEdge" to="583068249"/>
    <trip id="veh58" type="veh_passenger" depart="20.72" departLane="best" from="570468184#0" to="1050942995#0-AddedOffRampEdge"/>
    <trip id="veh59" type="veh_passenger" depart="21.07" departLane="best" from="686238257#23" to="489105658#0"/>
    <trip id="veh60" type="veh_passenger" depart="21.43" departLane="best" from="694755300#0" to="488552161#1"/>
    <trip id="veh61" type="veh_passenger" depart="21.79" departLane="best" from="-101317309#1" to="220657249#2"/>
    <trip id="veh63" type="veh_passenger" depart="22.50" departLane="best" from="96327304#5" to="834856440#1"/>
    <trip id="veh65" type="veh_passenger" depart="23.22" departLane="best" from="96327304#4-AddedOffRampEdge" to="974372178#4"/>
    <trip id="veh66" type="veh_passenger" depart="23.57" departLane="best" from="101316045#0" to="329066213#0"/>
    <trip id="veh67" type="veh_passenger" depart="23.93" departLane="best" departSpeed="max" from="-773895039" to="679999362#16-AddedOffRampEdge"/>
    <trip id="veh68" type="veh_passenger" depart="24.29" departLane="best" from="689220805#0" to="1050765265#0"/>
    <trip id="veh70" type="veh_passenger" depart="25.00" departLane="best" from="25436150" to="1055022190#0"/>
    <trip id="veh71" type="veh_passenger" depart="25.36" departLane="best" from="488272003#0-AddedOnRampEdge" to="636481682"/>
    <trip id="veh72" type="veh_passenger" depart="25.72" departLane="best" from="1051576671" to="208128051#4"/>
    <trip id="veh74" type="veh_passenger" depart="26.43" departLane="best" from="25481897#0" to="446481980#6"/>
    <trip id="veh76" type="veh_passenger" depart="27.15" departLane="best" from="220885830#1-AddedOnRampEdge" to="563883392#15"/>
    <trip id="veh77" type="veh_passenger" depart="27.50" departLane="best" from="1052673731#0" to="1055022196#2-AddedOnRampEdge"/>
    <trip id="veh78" type="veh_passenger" depart="27.86" departLane="best" departSpeed="max" from="-778460597#16" to="581126440"/>
    <trip id="veh79" type="veh_passenger" depart="28.22" departLane="best" from="1052673725#2-AddedOnRampEdge" to="963575158#1"/>
    <trip id="veh80" type="veh_passenger" depart="28.57" departLane="best" from="916419668#9" to="101317067#1"/>
    <trip id="veh81" type="veh_passenger" depart="28.93" departLane="best" from="1052673737#2" to="633620767#0"/>
    <trip id="veh82" type="veh_passenger" depart="29.29" departLane="best" from="1052231183#1" to="1050765265#0"/>
    <trip id="veh83" type="veh_passenger" depart="29.65" departLane="best" departSpeed="max" from="974379906#0" to="536237116#0"/>
    <trip id="veh84" type="veh_passenger" depart="30.00" departLane="best" from="26922965#1" to="69347634#17"/>
    <trip id="veh85" type="veh_passenger" depart="30.36" departLane="best" from="778460597#14" to="1052247918#4"/>
    <trip id="veh86" type="veh_passenger" depart="30.72" departLane="best" from="101316762#17" to="25482634#1-AddedOnRampEdge"/>
    <trip id="veh87" type="veh_passenger" depart="31.07" departLane="best" from="25447619#0" to="311100023#3"/>
    <trip id="veh88" type="veh_passenger" depart="31.43" departLane="best" departSpeed="max" from="672979238#0" to="633620767#3"/>
    <trip id="veh89" type="veh_passenger" depart="31.79" departLane="best" departSpeed="max" from="996890848" to="1031889490#0"/>
    <trip id="veh90" type="veh_passenger" depart="32.15" departLane="best" from="234738422#0" to="231405165#2"/>
    <trip id="veh91" type="veh_passenger" depart="32.50" departLane="best" from="935095338" to="107586297#2"/>
    <trip id="veh93" type="veh_passenger" depart="33.22" departLane="best" from="25421075-AddedOffRampEdge" to="182178726"/>
    <trip id="veh94" type="veh_passenger" depart="33.58" departLane="best" from="1055022196#7-AddedOffRampEdge" to="972622978#0"/>
    <trip id="veh95" type="veh_passenger" depart="33.93" departLane="best" from="25482638#1-AddedOnRampEdge" to="895941575"/>
    <trip id="veh96" type="veh_passenger" depart="34.29" departLane="best" from="488552161#5" to="101315986#5"/>
    <trip id="veh98" type="veh_passenger" depart="35.00" departLane="best" departSpeed="max" from="995989149#0" to="972622978#0"/>
    <trip id="veh99" type="veh_passenger" depart="35.36" departLane="best" from="909215351#0" to="1050943015#2"/>
    <trip id="veh100" type="veh_passenger" depart="35.72" departLane="best" from="311100023#2" to="1055022193#1"/>
    <trip id="veh101" type="veh_passenger" depart="36.08" departLane="best" from="234239339#0" to="101316762#13-AddedOnRampEdge"/>
    <trip id="veh102" type="veh_passenger" depart="36.43" departLane="best" departSpeed="max" from="233713926#0" to="995989150#2"/>
    <trip id="veh103" type="veh_passenger" depart="36.79" departLane="best" departSpeed="max" from="1066024789#0" to="69347634#16"/>
    <trip id="veh104" type="veh_passenger" depart="37.15" departLane="best" departSpeed="max" from="255634810#0" to="25447619#7-AddedOnRampEdge"/>
    <trip id="veh105" type="veh_passenger" depart="37.50" departLane="best" from="984908601#1" to="996890853"/>
    <trip id="veh106" type="veh_passenger" depart="37.86" departLane="best" departSpeed="max" from="497373357#0" to="636237018"/>
    <trip id="veh107" type="veh_passenger" depart="38.22" departLane="best" departSpeed="max" from="1050765261" to="203270131#2"/>
    <trip id="veh108" type="veh_passenger" depart="38.58" departLane="best" departSpeed="max" from="995989149#0" to="556707372#6"/>
    <trip id="veh109" type="veh_passenger" depart="38.93" departLane="best" from="488273277#2" to="674023737"/>
    <trip id="veh111" type="veh_passenger" depart="39.65" departLane="best" from="329066213#2" to="894305094#0"/>
    <trip id="veh112" type="veh_passenger" depart="40.00" departLane="best" departSpeed="max" from="1050765262#0" to="977510122#0"/>
    <trip id="veh113" type="veh_passenger" depart="40.36" departLane="best" departSpeed="max" from="1006938317" to="1052231182#2"/>
    <trip id="veh114" type="veh_passenger" depart="40.72" departLane="best" from="565480544" to="633620767#4"/>
    <trip id="veh115" type="veh_passenger" depart="41.08" departLane="best" from="1052673733#2" to="1050765258#1"/>
    <trip id="veh116" type="veh_passenger" depart="41.43" departLane="best" departSpeed="max" from="963575161#0" to="107586296#5"/>
    <trip id="veh117" type="veh_passenger" depart="41.79" departLane="best" from="565480543#1-AddedOnRampEdge" to="575168590"/>
    <trip id="veh118" type="veh_passenger" depart="42.15" departLane="best" from="238956805" to="556707386#4"/>
    <trip id="veh119" type="veh_passenger" depart="42.50" departLane="best" from="393898830#0-AddedOffRampEdge" to="974372177#3"/>
    <trip id="veh120" type="veh_passenger" depart="42.86" departLane="best" from="1051817810#0" to="636237014#1-AddedOnRampEdge"/>
    <trip id="veh121" type="veh_passenger" depart="43.22" departLane="best" from="1055022186#1" to="234238401"/>
    <trip id="veh122" type="veh_passenger" depart="43.58" departLane="best" from="636236925#0" to="203270131#9"/>
    <trip id="veh123" type="veh_passenger" depart="43.93" departLane="best" from="203270131#6" to="679999361#11"/>
    <trip id="veh124" type="veh_passenger" depart="44.29" departLane="best" from="-783261470#0" to="27006844#1"/>
    <trip id="veh125" type="veh_passenger" depart="44.65" departLane="best" departSpeed="max" from="-783261470#1" to="1055022192#0"/>
    <trip id="veh126" type="veh_passenger" depart="45.01" departLane="best" departSpeed="max" from="1066024789#0" to="974372177#2"/>
    <trip id="veh127" type="veh_passenger" depart="45.36" departLane="best" departSpeed="max" from="96327306" to="935095338"/>
    <trip id="veh129" type="veh_passenger" depart="46.08" departLane="best" from="894305092#0-AddedOffRampEdge" to="636236960"/>
    <trip id="veh130" type="veh_passenger" depart="46.43" departLane="best" from="570468184#3" to="995989153#1"/>
    <trip id="veh131" type="veh_passenger" depart="46.79" departLane="best" from="633620767#2" to="-107586340#0"/>
    <trip id="veh132" type="veh_passenger" depart="47.15" departLane="best" from="834856440#1" to="203270131#6-AddedOnRampEdge"/>
    <trip id="veh134" type="veh_passenger" depart="47.86" departLane="best" from="1047141794" to="1049950456"/>
    <trip id="veh135" type="veh_passenger" depart="48.22" departLane="best" from="101317038#1" to="51191104#0-AddedOnRampEdge"/>
    <trip id="veh137" type="veh_passenger" depart="48.93" departLane="best" departSpeed="max" from="636282361" to="1052673731#2"/>
    <trip id="veh139" type="veh_passenger" depart="49.65" departLane="best" from="311100023#7-AddedOnRampEdge" to="963575158#1"/>
    <trip id="veh140" type="veh_passenger" depart="50.01" departLane="best" departSpeed="max" from="895941576" to="1017489393#6"/>
    <trip id="veh141" type="veh_passenger" depart="50.36" departLane="best" from="25447619#0" to="165265404#3-AddedOffRampEdge"/>
    <trip id="veh142" type="veh_passenger" depart="50.72" departLane="best" from="-1051576669#2" to="686238257#11"/>
    <trip id="veh144" type="veh_passenger" depart="51.43" departLane="best" from="679999362#16-AddedOnRampEdge" to="51191097#2"/>
    <trip id="veh145" type="veh_passenger" depart="51.79" departLane="best" from="25447619#15-AddedOffRampEdge" to="-107586340#6"/>
    <trip id="veh146" type="veh_passenger" depart="52.15" departLane="best" from="-862777463#0" to="953806722#1"/>
    <trip id="veh147" type="veh_passenger" depart="52.51" departLane="best" from="972622986" to="498477952#1-AddedOnRampEdge"/>
    <trip id="veh148" type="veh_passenger" depart="52.86" departLane="best" from="894305092#1" to="556707383#2"/>
    <trip id="veh149" type="veh_passenger" depart="53.22" departLane="best" from="1049950457-AddedOffRampEdge" to="1050765265#0"/>
    <trip id="veh150" type="veh_passenger" depart="53.58" departLane="best" from="183402036#2" to="96327304#4"/>
    <trip id="veh151" type="veh_passenger" depart="53.93" departLane="best" departSpeed="max" from="773895012#0" to="895941572"/>
    <trip id="veh152" type="veh_passenger" depart="54.29" departLane="best" departSpeed="max" from="96392604#0" to="1052673737#3"/>
    <trip id="veh153" type="veh_passenger" depart="54.65" departLane="best" from="1055022196#7" to="1031889490#2"/>
    <trip id="veh154" type="veh_passenger" depart="55.01" departLane="best" from="694755300#3" to="953806724"/>
    <trip id="veh155" type="veh_passenger" depart="55.36" departLane="best" from="237904516#3" to="575168592#0"/>
    <trip id="veh157" type="veh_passenger" depart="56.08" departLane="best" from="953806722#0" to="984908601#7"/>
    <trip id="veh158" type="veh_passenger" depart="56.44" departLane="best" departSpeed="max" from="780526355#0" to="953806720#1"/>
    <trip id="veh159" type="veh_passenger" depart="56.79" departLane="best" departSpeed="max" from="-232501627" to="638899193"/>
    <trip id="veh162" type="veh_passenger" depart="57.86" departLane="best" departSpeed="max" from="780526355#0" to="165265309"/>
    <trip id="veh163" type="veh_passenger" depart="58.22" departLane="best" from="733502963#0" to="1031889493#0-AddedOnRampEdge"/>
    <trip id="veh164" type="veh_passenger" depart="58.58" departLane="best" from="96326554" to="894814744"/>
    <trip id="veh166" type="veh_passenger" depart="59.29" departLane="best" from="25603918#1-AddedOnRampEdge" to="203270131#9"/>
    <trip id="veh167" type="veh_passenger" depart="59.65" departLane="best" departSpeed="max" from="773895012#0" to="1057494135#1"/>
    <trip id="veh168" type="veh_passenger" depart="60.01" departLane="best" from="-231408863" to="1052247919#4"/>
    <trip id="veh169" type="veh_passenger" depart="60.36" departLane="best" from="219961340#3" to="911272994#2"/>
    <trip id="veh170" type="veh_passenger" depart="60.72" departLane="best" departSpeed="max" from="995989148" to="182367022#0"/>
    <trip id="veh171" type="veh_passenger" depart="61.08" departLane="best" from="633620700#1-AddedOffRampEdge" to="235480768#2"/>
    <trip id="veh172" type="veh_passenger" depart="61.44" departLane="best" from="996007441#1" to="488882755#4"/>
    <trip id="veh173" type="veh_passenger" depart="61.79" departLane="best" from="974379906#2" to="1049950456"/>
    <trip id="veh174" type="veh_passenger" depart="62.15" departLane="best" departSpeed="max" from="995989149#0" to="1051817801"/>
    <trip id="veh175" type="veh_passenger" depart="62.51" departLane="best" departSpeed="max" from="984908602#0" to="165265286#1-AddedOnRampEdge"/>
    <trip id="veh176" type="veh_passenger" depart="62.86" departLane="best" from="101317067#1" to="25529188#3"/>
    <trip id="veh177" type="veh_passenger" depart="63.22" departLane="best" departSpeed="max" from="672979238#0" to="208128052#6"/>
    <trip id="veh178" type="veh_passenger" depart="63.58" departLane="best" from="566000433#1" to="403142812#1-AddedOffRampEdge"/>
    <trip id="veh179" type="veh_passenger" depart="63.94" departLane="best" from="233713929#3-AddedOffRampEdge" to="556707372#6"/>
    <trip id="veh181" type="veh_passenger" depart="64.65" departLane="best" departSpeed="max" from="-1050942998#1" to="972622978#0"/>
    <trip id="veh182" type="veh_passenger" depart="65.01" departLane="best" from="488272003#0" to="636237020#0"/>
    <trip id="veh183" type="veh_passenger" depart="65.36" departLane="best" from="679999362#16-AddedOnRampEdge" to="633620767#1"/>
    <trip id="veh184" type="veh_passenger" depart="65.72" departLane="best" from="231988891" to="101317038#2"/>
    <trip id="veh185" type="veh_passenger" depart="66.08" departLane="best" from="633620768" to="226526595#2"/>
    <trip id="veh186" type="veh_passenger" depart="66.44" departLane="best" from="203270131#1-AddedOffRampEdge" to="877308511"/>
    <trip id="veh187" type="veh_passenger" depart="66.79" departLane="best" departSpeed="max" from="636481681" to="203270131#9"/>
    <trip id="veh188" type="veh_passenger" depart="67.15" departLane="best" from="183402036#6" to="237907202"/>
    <trip id="veh189" type="veh_passenger" depart="67.51" departLane="best" from="234532262" to="203270131#1-AddedOffRampEdge"/>
    <trip id="veh191" type="veh_passenger" depart="68.22" departLane="best" from="974379908#1" to="633620767#5-AddedOffRampEdge"/>
    <trip id="veh192" type="veh_passenger" depart="68.58" departLane="best" from="972622953" to="570468187"/>
    <trip id="veh193" type="veh_passenger" depart="68.94" departLane="best" from="182367022#0" to="498477953#2"/>
    <trip id="veh194" type="veh_passenger" depart="69.29" departLane="best" from="-101317309#1" to="182832519"/>
    <trip id="veh195" type="veh_passenger" depart="69.65" departLane="best" from="25447619#3" to="556707372#6"/>
    <trip id="veh196" type="veh_passenger" depart="70.01" departLane="best" from="633620767#2-AddedOnRampEdge" to="311100023#1"/>
    <trip id="veh197" type="veh_passenger" depart="70.37" departLane="best" from="25482634#1-AddedOnRampEdge" to="1055022193#1"/>
    <trip id="veh198" type="veh_passenger" depart="70.72" departLane="best" from="26922965#4" to="96327307#3"/>
    <trip id="veh199" type="veh_passenger" depart="71.08" departLane="best" departSpeed="max" from="773895012#0" to="1050943015#2"/>
    <trip id="veh200" type="veh_passenger" depart="71.44" departLane="best" from="101316033#1-AddedOnRampEdge" to="413035255-AddedOnRampEdge"/>
    <trip id="veh202" type="veh_passenger" depart="72.15" departLane="best" from="846028687" to="679999361#11"/>
    <trip id="veh203" type="veh_passenger" depart="72.51" departLane="best" from="636236925#0" to="1055022197#1-AddedOnRampEdge"/>
    <trip id="veh204" type="veh_passenger" depart="72.87" departLane="best" departSpeed="max" from="1051539560#0" to="-489105647#2"/>
    <trip id="veh205" type="veh_passenger" depart="73.22" departLane="best" from="1055022195#1-AddedOffRampEdge" to="328900405#1"/>
    <trip id="veh206" type="veh_passenger" depart="73.58" departLane="best" from="909215355" to="101317827"/>
    <trip id="veh207" type="veh_passenger" depart="73.94" departLane="best" from="1051266595" to="636236925#3"/>
    <trip id="veh208" type="veh_passenger" depart="74.29" departLane="best" from="328900405#2-AddedOnRampEdge" to="107586289"/>
    <trip id="veh209" type="veh_passenger" depart="74.65" departLane="best" from="633620767#3" to="-107586303"/>
    <trip id="veh210" type="veh_passenger" depart="75.01" departLane="best" from="680992417#6" to="683864491#0-AddedOffRampEdge"/>
    <trip id="veh211" type="veh_passenger" depart="75.37" departLane="best" from="101317038#1" to="25447638#3"/>
    <trip id="veh212" type="veh_passenger" depart="75.72" departLane="best" from="1050921394#4" to="974379911-AddedOffRampEdge"/>
    <trip id="veh214" type="veh_passenger" depart="76.44" departLane="best" from="1055022196#6" to="894305092#0"/>
    <trip id="veh215" type="veh_passenger" depart="76.79" departLane="best" departSpeed="max" from="255634810#0" to="733502963#1"/>
    <trip id="veh216" type="veh_passenger" depart="77.15" departLane="best" from="636236901" to="995989154#2"/>
    <trip id="veh217" type="veh_passenger" depart="77.51" departLane="best" from="565480545#1" to="974379906#1-AddedOnRampEdge"/>
    <trip id="veh218" type="veh_passenger" depart="77.87" departLane="best" departSpeed="max" from="963575161#0" to="570468184#1"/>
    <trip id="veh219" type="veh_passenger" depart="78.22" departLane="best" departSpeed="max" from="636282361" to="377809340#1"/>
    <trip id="veh221" type="veh_passenger" depart="78.94" departLane="best" departSpeed="max" from="96392604#0" to="671753468#2"/>
    <trip id="veh222" type="veh_passenger" depart="79.29" departLane="best" from="26968030#1-AddedOnRampEdge" to="107586321#0"/>
    <trip id="veh223" type="veh_passenger" depart="79.65" departLane="best" from="1055022196#2" to="582188692#1"/>
    <trip id="veh224" type="veh_passenger" depart="80.01" departLane="best" from="689220805#0" to="446804371#1"/>
    <trip id="veh225" type="veh_passenger" depart="80.37" departLane="best" from="582188692#1-AddedOnRampEdge" to="165265402"/>
    <trip id="veh226" type="veh_passenger" depart="80.72" departLane="best" departSpeed="max" from="-96392614" to="182370605#1"/>
    <trip id="veh227" type="veh_passenger" depart="81.08" departLane="best" from="107586289" to="219961340#8"/>
    <trip id="veh228" type="veh_passenger" depart="81.44" departLane="best" from="488272003#3" to="1050921382#0-AddedOffRampEdge"/>
    <trip id="veh229" type="veh_passenger" depart="81.80" departLane="best" from="1052673731#2" to="636236925#0"/>
    <trip id="veh230" type="veh_passenger" depart="82.15" departLane="best" from="636258633#0-AddedOffRampEdge" to="101316762#3-AddedOnRampEdge"/>
    <trip id="veh231" type="veh_passenger" depart="82.51" departLane="best" from="237905380#0" to="498477945#2"/>
    <trip id="veh232" type="veh_passenger" depart="82.87" departLane="best" departSpeed="max" from="237905396" to="1052673733#2"/>
    <trip id="veh233" type="veh_passenger" depart="83.22" departLane="best" from="239064278" to="963575158#1"/>
    <trip id="veh234" type="veh_passenger" depart="83.58" departLane="best" from="556707384" to="636236925#1"/>
    <trip id="veh235" type="veh_passenger" depart="83.94" departLane="best" from="916419668#3" to="680992417#4"/>
    <trip id="veh236" type="veh_passenger" depart="84.30" departLane="best" departSpeed="max" from="233713926#0" to="-107586319#1"/>
    <trip id="veh237" type="veh_passenger" depart="84.65" departLane="best" from="231787204" to="679999361#11"/>
    <trip id="veh238" type="veh_passenger" depart="85.01" departLane="best" from="913590441#1" to="974379908#2"/>
    <trip id="veh239" type="veh_passenger" depart="85.37" departLane="best" from="238956805" to="672979238#1-AddedOffRampEdge"/>
    <trip id="veh240" type="veh_passenger" depart="85.72" departLane="best" departSpeed="max" from="488552161#0" to="565485208#0"/>
    <trip id="veh241" type="veh_passenger" depart="86.08" departLane="best" from="1052247918#1" to="1055022196#2"/>
    <trip id="veh242" type="veh_passenger" depart="86.44" departLane="best" from="25447638#2" to="-533466804"/>
    <trip id="veh243" type="veh_passenger" depart="86.80" departLane="best" departSpeed="max" from="220885830#0" to="633620767#6"/>
    <trip id="veh244" type="veh_passenger" depart="87.15" departLane="best" from="235480768#2" to="1050943015#1"/>
    <trip id="veh245" type="veh_passenger" depart="87.51" departLane="best" from="264306572#1" to="1050765265#0"/>
    <trip id="veh246" type="veh_passenger" depart="87.87" departLane="best" from="581126439" to="-497373357#3"/>
    <trip id="veh247" type="veh_passenger" depart="88.22" departLane="best" from="233815054#1" to="533894270#1"/>
    <trip id="veh248" type="veh_passenger" depart="88.58" departLane="best" from="-25447637#2" to="583068251#0"/>
    <trip id="veh249" type="veh_passenger" depart="88.94" departLane="best" departSpeed="max" from="1049950452" to="28240194#2-AddedOnRampEdge"/>
    <trip id="veh253" type="veh_passenger" depart="90.37" departLane="best" from="680992418#0-AddedOffRampEdge" to="834856440#1"/>
    <trip id="veh254" type="veh_passenger" depart="90.72" departLane="best" from="1055022197#1-AddedOnRampEdge" to="1017489393#2-AddedOnRampEdge"/>
    <trip id="veh255" type="veh_passenger" depart="91.08" departLane="best" departSpeed="max" from="-220657249#2" to="489105658#0"/>
    <trip id="veh257" type="veh_passenger" depart="91.80" departLane="best" from="633620766" to="690978992#0"/>
    <trip id="veh258" type="veh_passenger" depart="92.15" departLane="best" from="633620767#0" to="679999361#11"/>
    <trip id="veh259" type="veh_passenger" depart="92.51" departLane="best" from="982037153#0" to="1052673725#0"/>
    <trip id="veh260" type="veh_passenger" depart="92.87" departLane="best" departSpeed="max" from="-220657249#2" to="1050942995#0"/>
    <trip id="veh261" type="veh_passenger" depart="93.22" departLane="best" from="1029213837" to="633620767#0-AddedOffRampEdge"/>
    <trip id="veh262" type="veh_passenger" depart="93.58" departLane="best" from="498477953#1" to="1055022196#0-AddedOffRampEdge"/>
    <trip id="veh263" type="veh_passenger" depart="93.94" departLane="best" departSpeed="max" from="636237024" to="680992417#6"/>
    <trip id="veh264" type="veh_passenger" depart="94.30" departLane="best" from="1050921383" to="566000432#0"/>
    <trip id="veh265" type="veh_passenger" depart="94.65" departLane="best" departSpeed="max" from="680992417#0" to="1049950456"/>
    <trip id="veh267" type="veh_passenger" depart="95.37" departLane="best" from="101317067#0-AddedOffRampEdge" to="-497373357#2"/>
    <trip id="veh268" type="veh_passenger" depart="95.73" departLane="best" from="187408910#2" to="633620767#5-AddedOnRampEdge"/>
    <trip id="veh269" type="veh_passenger" depart="96.08" departLane="best" from="984908601#2-AddedOnRampEdge" to="234239339#2"/>
    <trip id="veh270" type="veh_passenger" depart="96.44" departLane="best" from="636282358#2-AddedOnRampEdge" to="101317852#1-AddedOnRampEdge"/>
    <trip id="veh271" type="veh_passenger" depart="96.80" departLane="best" from="636237014#1-AddedOnRampEdge" to="581126440"/>
    <trip id="veh272" type="veh_passenger" depart="97.15" departLane="best" from="101316762#3-AddedOnRampEdge" to="686238257#16"/>
    <trip id="veh275" type="veh_passenger" depart="98.23" departLane="best" departSpeed="max" from="69569324" to="231787772#1"/>
    <trip id="veh276" type="veh_passenger" depart="98.58" departLane="best" from="25447619#16" to="232420305#0"/>
    <trip id="veh277" type="veh_passenger" depart="98.94" departLane="best" from="329087013#1" to="231405166#1"/>
    <trip id="veh279" type="veh_passenger" depart="99.65" departLane="best" from="101316836#0-AddedOnRampEdge" to="977510122#0"/>
    <trip id="veh280" type="veh_passenger" depart="100.01" departLane="best" from="585481138" to="783261470#1"/>