<configuration>
  <input>
    <net-file value="arterial4x4.net.xml"/>
    <route-files value="arterial4x4_1.rou.xml"/>
    <additional-files value="e1.add.xml, e2.add.xml"/>
  </input>
  <time>
    <begin value="0"/>
    <end value="3600"/>
  </time>
</configuration>
