<additional xmlns:xsi="http://www.w3.org/2001/XMLSchema-instance" xsi:noNamespaceSchemaLocation="http://sumo.dlr.de/xsd/additional_file.xsd">
    <e1Detector file="e1output.xml" freq="60" friendlyPos="x" id="np10_nt15_0" lane="np10_nt15_0" pos="74.9"/>
    <e1Detector file="e1output.xml" freq="60" friendlyPos="x" id="nt11_nt15_0" lane="nt11_nt15_0" pos="179.1"/>
    <e1Detector file="e1output.xml" freq="60" friendlyPos="x" id="nt14_nt15_0" lane="nt14_nt15_0" pos="185.5"/>
    <e1Detector file="e1output.xml" freq="60" friendlyPos="x" id="nt14_nt15_1" lane="nt14_nt15_1" pos="185.5"/>
    <e1Detector file="e1output.xml" freq="60" friendlyPos="x" id="nt16_nt15_0" lane="nt16_nt15_0" pos="185.5"/>
    <e1Detector file="e1output.xml" freq="60" friendlyPos="x" id="nt16_nt15_1" lane="nt16_nt15_1" pos="185.5"/>
    <e1Detector file="e1output.xml" freq="60" friendlyPos="x" id="np11_nt14_0" lane="np11_nt14_0" pos="74.9"/>
    <e1Detector file="e1output.xml" freq="60" friendlyPos="x" id="nt10_nt14_0" lane="nt10_nt14_0" pos="179.1"/>
    <e1Detector file="e1output.xml" freq="60" friendlyPos="x" id="nt13_nt14_0" lane="nt13_nt14_0" pos="185.5"/>
    <e1Detector file="e1output.xml" freq="60" friendlyPos="x" id="nt13_nt14_1" lane="nt13_nt14_1" pos="185.5"/>
    <e1Detector file="e1output.xml" freq="60" friendlyPos="x" id="nt15_nt14_0" lane="nt15_nt14_0" pos="185.5"/>
    <e1Detector file="e1output.xml" freq="60" friendlyPos="x" id="nt15_nt14_1" lane="nt15_nt14_1" pos="185.5"/>
    <e1Detector file="e1output.xml" freq="60" friendlyPos="x" id="np12_nt13_0" lane="np12_nt13_0" pos="74.9"/>
    <e1Detector file="e1output.xml" freq="60" friendlyPos="x" id="np13_nt13_0" lane="np13_nt13_0" pos="67.7"/>
    <e1Detector file="e1output.xml" freq="60" friendlyPos="x" id="np13_nt13_1" lane="np13_nt13_1" pos="67.7"/>
    <e1Detector file="e1output.xml" freq="60" friendlyPos="x" id="nt14_nt13_0" lane="nt14_nt13_0" pos="185.5"/>
    <e1Detector file="e1output.xml" freq="60" friendlyPos="x" id="nt14_nt13_1" lane="nt14_nt13_1" pos="185.5"/>
    <e1Detector file="e1output.xml" freq="60" friendlyPos="x" id="nt9_nt13_0" lane="nt9_nt13_0" pos="179.1"/>
    <e1Detector file="e1output.xml" freq="60" friendlyPos="x" id="np14_nt9_0" lane="np14_nt9_0" pos="67.7"/>
    <e1Detector file="e1output.xml" freq="60" friendlyPos="x" id="np14_nt9_1" lane="np14_nt9_1" pos="67.7"/>
    <e1Detector file="e1output.xml" freq="60" friendlyPos="x" id="nt10_nt9_0" lane="nt10_nt9_0" pos="185.5"/>
    <e1Detector file="e1output.xml" freq="60" friendlyPos="x" id="nt10_nt9_1" lane="nt10_nt9_1" pos="185.5"/>
    <e1Detector file="e1output.xml" freq="60" friendlyPos="x" id="nt13_nt9_0" lane="nt13_nt9_0" pos="179.1"/>
    <e1Detector file="e1output.xml" freq="60" friendlyPos="x" id="nt5_nt9_0" lane="nt5_nt9_0" pos="179.1"/>
    <e1Detector file="e1output.xml" freq="60" friendlyPos="x" id="np15_nt5_0" lane="np15_nt5_0" pos="67.7"/>
    <e1Detector file="e1output.xml" freq="60" friendlyPos="x" id="np15_nt5_1" lane="np15_nt5_1" pos="67.7"/>
    <e1Detector file="e1output.xml" freq="60" friendlyPos="x" id="nt1_nt5_0" lane="nt1_nt5_0" pos="179.1"/>
    <e1Detector file="e1output.xml" freq="60" friendlyPos="x" id="nt6_nt5_0" lane="nt6_nt5_0" pos="185.5"/>
    <e1Detector file="e1output.xml" freq="60" friendlyPos="x" id="nt6_nt5_1" lane="nt6_nt5_1" pos="185.5"/>
    <e1Detector file="e1output.xml" freq="60" friendlyPos="x" id="nt9_nt5_0" lane="nt9_nt5_0" pos="179.1"/>
    <e1Detector file="e1output.xml" freq="60" friendlyPos="x" id="np16_nt1_0" lane="np16_nt1_0" pos="67.7"/>
    <e1Detector file="e1output.xml" freq="60" friendlyPos="x" id="np16_nt1_1" lane="np16_nt1_1" pos="67.7"/>
    <e1Detector file="e1output.xml" freq="60" friendlyPos="x" id="np1_nt1_0" lane="np1_nt1_0" pos="64.5"/>
    <e1Detector file="e1output.xml" freq="60" friendlyPos="x" id="nt2_nt1_0" lane="nt2_nt1_0" pos="185.5"/>
    <e1Detector file="e1output.xml" freq="60" friendlyPos="x" id="nt2_nt1_1" lane="nt2_nt1_1" pos="185.5"/>
    <e1Detector file="e1output.xml" freq="60" friendlyPos="x" id="nt5_nt1_0" lane="nt5_nt1_0" pos="179.1"/>
    <e1Detector file="e1output.xml" freq="60" friendlyPos="x" id="np2_nt2_0" lane="np2_nt2_0" pos="64.5"/>
    <e1Detector file="e1output.xml" freq="60" friendlyPos="x" id="nt1_nt2_0" lane="nt1_nt2_0" pos="185.5"/>
    <e1Detector file="e1output.xml" freq="60" friendlyPos="x" id="nt1_nt2_1" lane="nt1_nt2_1" pos="185.5"/>
    <e1Detector file="e1output.xml" freq="60" friendlyPos="x" id="nt3_nt2_0" lane="nt3_nt2_0" pos="185.5"/>
    <e1Detector file="e1output.xml" freq="60" friendlyPos="x" id="nt3_nt2_1" lane="nt3_nt2_1" pos="185.5"/>
    <e1Detector file="e1output.xml" freq="60" friendlyPos="x" id="nt6_nt2_0" lane="nt6_nt2_0" pos="179.1"/>
    <e1Detector file="e1output.xml" freq="60" friendlyPos="x" id="np3_nt3_0" lane="np3_nt3_0" pos="64.5"/>
    <e1Detector file="e1output.xml" freq="60" friendlyPos="x" id="nt2_nt3_0" lane="nt2_nt3_0" pos="185.5"/>
    <e1Detector file="e1output.xml" freq="60" friendlyPos="x" id="nt2_nt3_1" lane="nt2_nt3_1" pos="185.5"/>
    <e1Detector file="e1output.xml" freq="60" friendlyPos="x" id="nt4_nt3_0" lane="nt4_nt3_0" pos="185.5"/>
    <e1Detector file="e1output.xml" freq="60" friendlyPos="x" id="nt4_nt3_1" lane="nt4_nt3_1" pos="185.5"/>
    <e1Detector file="e1output.xml" freq="60" friendlyPos="x" id="nt7_nt3_0" lane="nt7_nt3_0" pos="179.1"/>
    <e1Detector file="e1output.xml" freq="60" friendlyPos="x" id="np4_nt4_0" lane="np4_nt4_0" pos="64.5"/>
    <e1Detector file="e1output.xml" freq="60" friendlyPos="x" id="np5_nt4_0" lane="np5_nt4_0" pos="74.9"/>
    <e1Detector file="e1output.xml" freq="60" friendlyPos="x" id="np5_nt4_1" lane="np5_nt4_1" pos="74.9"/>
    <e1Detector file="e1output.xml" freq="60" friendlyPos="x" id="nt3_nt4_0" lane="nt3_nt4_0" pos="185.5"/>
    <e1Detector file="e1output.xml" freq="60" friendlyPos="x" id="nt3_nt4_1" lane="nt3_nt4_1" pos="185.5"/>
    <e1Detector file="e1output.xml" freq="60" friendlyPos="x" id="nt8_nt4_0" lane="nt8_nt4_0" pos="179.1"/>
    <e1Detector file="e1output.xml" freq="60" friendlyPos="x" id="np6_nt8_0" lane="np6_nt8_0" pos="74.9"/>
    <e1Detector file="e1output.xml" freq="60" friendlyPos="x" id="np6_nt8_1" lane="np6_nt8_1" pos="74.9"/>
    <e1Detector file="e1output.xml" freq="60" friendlyPos="x" id="nt12_nt8_0" lane="nt12_nt8_0" pos="179.1"/>
    <e1Detector file="e1output.xml" freq="60" friendlyPos="x" id="nt4_nt8_0" lane="nt4_nt8_0" pos="179.1"/>
    <e1Detector file="e1output.xml" freq="60" friendlyPos="x" id="nt7_nt8_0" lane="nt7_nt8_0" pos="185.5"/>
    <e1Detector file="e1output.xml" freq="60" friendlyPos="x" id="nt7_nt8_1" lane="nt7_nt8_1" pos="185.5"/>
    <e1Detector file="e1output.xml" freq="60" friendlyPos="x" id="np7_nt12_0" lane="np7_nt12_0" pos="74.9"/>
    <e1Detector file="e1output.xml" freq="60" friendlyPos="x" id="np7_nt12_1" lane="np7_nt12_1" pos="74.9"/>
    <e1Detector file="e1output.xml" freq="60" friendlyPos="x" id="nt11_nt12_0" lane="nt11_nt12_0" pos="185.5"/>
    <e1Detector file="e1output.xml" freq="60" friendlyPos="x" id="nt11_nt12_1" lane="nt11_nt12_1" pos="185.5"/>
    <e1Detector file="e1output.xml" freq="60" friendlyPos="x" id="nt16_nt12_0" lane="nt16_nt12_0" pos="179.1"/>
    <e1Detector file="e1output.xml" freq="60" friendlyPos="x" id="nt8_nt12_0" lane="nt8_nt12_0" pos="179.1"/>
    <e1Detector file="e1output.xml" freq="60" friendlyPos="x" id="np8_nt16_0" lane="np8_nt16_0" pos="74.9"/>
    <e1Detector file="e1output.xml" freq="60" friendlyPos="x" id="np8_nt16_1" lane="np8_nt16_1" pos="74.9"/>
    <e1Detector file="e1output.xml" freq="60" friendlyPos="x" id="np9_nt16_0" lane="np9_nt16_0" pos="74.9"/>
    <e1Detector file="e1output.xml" freq="60" friendlyPos="x" id="nt12_nt16_0" lane="nt12_nt16_0" pos="179.1"/>
    <e1Detector file="e1output.xml" freq="60" friendlyPos="x" id="nt15_nt16_0" lane="nt15_nt16_0" pos="185.5"/>
    <e1Detector file="e1output.xml" freq="60" friendlyPos="x" id="nt15_nt16_1" lane="nt15_nt16_1" pos="185.5"/>
    <e1Detector file="e1output.xml" freq="60" friendlyPos="x" id="nt10_nt11_0" lane="nt10_nt11_0" pos="185.5"/>
    <e1Detector file="e1output.xml" freq="60" friendlyPos="x" id="nt10_nt11_1" lane="nt10_nt11_1" pos="185.5"/>
    <e1Detector file="e1output.xml" freq="60" friendlyPos="x" id="nt12_nt11_0" lane="nt12_nt11_0" pos="185.5"/>
    <e1Detector file="e1output.xml" freq="60" friendlyPos="x" id="nt12_nt11_1" lane="nt12_nt11_1" pos="185.5"/>
    <e1Detector file="e1output.xml" freq="60" friendlyPos="x" id="nt15_nt11_0" lane="nt15_nt11_0" pos="179.1"/>
    <e1Detector file="e1output.xml" freq="60" friendlyPos="x" id="nt7_nt11_0" lane="nt7_nt11_0" pos="179.1"/>
    <e1Detector file="e1output.xml" freq="60" friendlyPos="x" id="nt10_nt6_0" lane="nt10_nt6_0" pos="179.1"/>
    <e1Detector file="e1output.xml" freq="60" friendlyPos="x" id="nt2_nt6_0" lane="nt2_nt6_0" pos="179.1"/>
    <e1Detector file="e1output.xml" freq="60" friendlyPos="x" id="nt5_nt6_0" lane="nt5_nt6_0" pos="185.5"/>
    <e1Detector file="e1output.xml" freq="60" friendlyPos="x" id="nt5_nt6_1" lane="nt5_nt6_1" pos="185.5"/>
    <e1Detector file="e1output.xml" freq="60" friendlyPos="x" id="nt7_nt6_0" lane="nt7_nt6_0" pos="185.5"/>
    <e1Detector file="e1output.xml" freq="60" friendlyPos="x" id="nt7_nt6_1" lane="nt7_nt6_1" pos="185.5"/>
    <e1Detector file="e1output.xml" freq="60" friendlyPos="x" id="nt11_nt10_0" lane="nt11_nt10_0" pos="185.5"/>
    <e1Detector file="e1output.xml" freq="60" friendlyPos="x" id="nt11_nt10_1" lane="nt11_nt10_1" pos="185.5"/>
    <e1Detector file="e1output.xml" freq="60" friendlyPos="x" id="nt14_nt10_0" lane="nt14_nt10_0" pos="179.1"/>
    <e1Detector file="e1output.xml" freq="60" friendlyPos="x" id="nt6_nt10_0" lane="nt6_nt10_0" pos="179.1"/>
    <e1Detector file="e1output.xml" freq="60" friendlyPos="x" id="nt9_nt10_0" lane="nt9_nt10_0" pos="185.5"/>
    <e1Detector file="e1output.xml" freq="60" friendlyPos="x" id="nt9_nt10_1" lane="nt9_nt10_1" pos="185.5"/>
    <e1Detector file="e1output.xml" freq="60" friendlyPos="x" id="nt11_nt7_0" lane="nt11_nt7_0" pos="179.1"/>
    <e1Detector file="e1output.xml" freq="60" friendlyPos="x" id="nt3_nt7_0" lane="nt3_nt7_0" pos="179.1"/>
    <e1Detector file="e1output.xml" freq="60" friendlyPos="x" id="nt6_nt7_0" lane="nt6_nt7_0" pos="185.5"/>
    <e1Detector file="e1output.xml" freq="60" friendlyPos="x" id="nt6_nt7_1" lane="nt6_nt7_1" pos="185.5"/>
    <e1Detector file="e1output.xml" freq="60" friendlyPos="x" id="nt8_nt7_0" lane="nt8_nt7_0" pos="185.5"/>
    <e1Detector file="e1output.xml" freq="60" friendlyPos="x" id="nt8_nt7_1" lane="nt8_nt7_1" pos="185.5"/>
</additional>
