<additional xmlns:xsi="http://www.w3.org/2001/XMLSchema-instance" xsi:noNamespaceSchemaLocation="http://sumo.dlr.de/xsd/additional_file.xsd">
    <e1Detector file="e1output.xml" freq="60" friendlyPos="x" id="-186623965#16_0" lane="-186623965#16_0" pos="188.01000000000002"/>
    <e1Detector file="e1output.xml" freq="60" friendlyPos="x" id="-186623965#16_1" lane="-186623965#16_1" pos="188.01000000000002"/>
    <e1Detector file="e1output.xml" freq="60" friendlyPos="x" id="-297047310#2_0" lane="-297047310#2_0" pos="601.36"/>
    <e1Detector file="e1output.xml" freq="60" friendlyPos="x" id="-42925825#2_0" lane="-42925825#2_0" pos="254.09"/>
    <e1Detector file="e1output.xml" freq="60" friendlyPos="x" id="186623965#9_0" lane="186623965#9_0" pos="159.58"/>
    <e1Detector file="e1output.xml" freq="60" friendlyPos="x" id="186623965#9_1" lane="186623965#9_1" pos="159.58"/>
    <e1Detector file="e1output.xml" freq="60" friendlyPos="x" id="-186623965#18_0" lane="-186623965#18_0" pos="144.64000000000001"/>
    <e1Detector file="e1output.xml" freq="60" friendlyPos="x" id="-186623965#18_1" lane="-186623965#18_1" pos="144.64000000000001"/>
    <e1Detector file="e1output.xml" freq="60" friendlyPos="x" id="-22917421#14_0" lane="-22917421#14_0" pos="533.49"/>
    <e1Detector file="e1output.xml" freq="60" friendlyPos="x" id="186623965#15_0" lane="186623965#15_0" pos="187.85"/>
    <e1Detector file="e1output.xml" freq="60" friendlyPos="x" id="186623965#15_1" lane="186623965#15_1" pos="187.85"/>
    <e1Detector file="e1output.xml" freq="60" friendlyPos="x" id="22917421#3_0" lane="22917421#3_0" pos="96.16000000000001"/>
    <e1Detector file="e1output.xml" freq="60" friendlyPos="x" id="-225249129#0_0" lane="-225249129#0_0" pos="12.55"/>
    <e1Detector file="e1output.xml" freq="60" friendlyPos="x" id="-24487264_0" lane="-24487264_0" pos="166.25"/>
    <e1Detector file="e1output.xml" freq="60" friendlyPos="x" id="23648008#2_0" lane="23648008#2_0" pos="175.5"/>
    <e1Detector file="e1output.xml" freq="60" friendlyPos="x" id="-22959475#4_0" lane="-22959475#4_0" pos="190.49"/>
    <e1Detector file="e1output.xml" freq="60" friendlyPos="x" id="-28675510#11_0" lane="-28675510#11_0" pos="257.79999999999995"/>
    <e1Detector file="e1output.xml" freq="60" friendlyPos="x" id="22917421#5_0" lane="22917421#5_0" pos="533.37"/>
    <e1Detector file="e1output.xml" freq="60" friendlyPos="x" id="28675510#4_0" lane="28675510#4_0" pos="88.65"/>
    <e1Detector file="e1output.xml" freq="60" friendlyPos="x" id="-23283579#0_0" lane="-23283579#0_0" pos="61.589999999999996"/>
    <e1Detector file="e1output.xml" freq="60" friendlyPos="x" id="-28675510#0_0" lane="-28675510#0_0" pos="122.63000000000001"/>
    <e1Detector file="e1output.xml" freq="60" friendlyPos="x" id="-8716807#0_0" lane="-8716807#0_0" pos="100.18"/>
    <e1Detector file="e1output.xml" freq="60" friendlyPos="x" id="133081985#1_0" lane="133081985#1_0" pos="83.27000000000001"/>
    <e1Detector file="e1output.xml" freq="60" friendlyPos="x" id="-23648008#0_0" lane="-23648008#0_0" pos="75.80000000000001"/>
    <e1Detector file="e1output.xml" freq="60" friendlyPos="x" id="-28675493_0" lane="-28675493_0" pos="90.75"/>
    <e1Detector file="e1output.xml" freq="60" friendlyPos="x" id="-28675493_1" lane="-28675493_1" pos="90.75"/>
    <e1Detector file="e1output.xml" freq="60" friendlyPos="x" id="297047310#4_0" lane="297047310#4_0" pos="55.059999999999995"/>
    <e1Detector file="e1output.xml" freq="60" friendlyPos="x" id="-23686088#0_0" lane="-23686088#0_0" pos="36.69"/>
    <e1Detector file="e1output.xml" freq="60" friendlyPos="x" id="-4936412_0" lane="-4936412_0" pos="33.93"/>
    <e1Detector file="e1output.xml" freq="60" friendlyPos="x" id="-28675494#1_0" lane="-28675494#1_0" pos="73.33000000000001"/>
    <e1Detector file="e1output.xml" freq="60" friendlyPos="x" id="-28675494#1_1" lane="-28675494#1_1" pos="73.33000000000001"/>
    <e1Detector file="e1output.xml" freq="60" friendlyPos="x" id="297047308_0" lane="297047308_0" pos="28.419999999999998"/>
    <e1Detector file="e1output.xml" freq="60" friendlyPos="x" id="8716807#6_0" lane="8716807#6_0" pos="58.41"/>
</additional>
