<additional xmlns:xsi="http://www.w3.org/2001/XMLSchema-instance" xsi:noNamespaceSchemaLocation="http://sumo.dlr.de/xsd/additional_file.xsd">
    <e1Detector file="e1output.xml" freq="60" friendlyPos="x" id="A0A1_0" lane="A0A1_0" pos="272.7"/>
    <e1Detector file="e1output.xml" freq="60" friendlyPos="x" id="A0A1_1" lane="A0A1_1" pos="272.7"/>
    <e1Detector file="e1output.xml" freq="60" friendlyPos="x" id="A0A1_2" lane="A0A1_2" pos="272.7"/>
    <e1Detector file="e1output.xml" freq="60" friendlyPos="x" id="A2A1_0" lane="A2A1_0" pos="272.7"/>
    <e1Detector file="e1output.xml" freq="60" friendlyPos="x" id="A2A1_1" lane="A2A1_1" pos="272.7"/>
    <e1Detector file="e1output.xml" freq="60" friendlyPos="x" id="A2A1_2" lane="A2A1_2" pos="272.7"/>
    <e1Detector file="e1output.xml" freq="60" friendlyPos="x" id="B1A1_0" lane="B1A1_0" pos="272.7"/>
    <e1Detector file="e1output.xml" freq="60" friendlyPos="x" id="B1A1_1" lane="B1A1_1" pos="272.7"/>
    <e1Detector file="e1output.xml" freq="60" friendlyPos="x" id="B1A1_2" lane="B1A1_2" pos="272.7"/>
    <e1Detector file="e1output.xml" freq="60" friendlyPos="x" id="left1A1_0" lane="left1A1_0" pos="286.29999999999995"/>
    <e1Detector file="e1output.xml" freq="60" friendlyPos="x" id="left1A1_1" lane="left1A1_1" pos="286.29999999999995"/>
    <e1Detector file="e1output.xml" freq="60" friendlyPos="x" id="left1A1_2" lane="left1A1_2" pos="286.29999999999995"/>
    <e1Detector file="e1output.xml" freq="60" friendlyPos="x" id="A0B0_0" lane="A0B0_0" pos="272.7"/>
    <e1Detector file="e1output.xml" freq="60" friendlyPos="x" id="A0B0_1" lane="A0B0_1" pos="272.7"/>
    <e1Detector file="e1output.xml" freq="60" friendlyPos="x" id="A0B0_2" lane="A0B0_2" pos="272.7"/>
    <e1Detector file="e1output.xml" freq="60" friendlyPos="x" id="B1B0_0" lane="B1B0_0" pos="272.7"/>
    <e1Detector file="e1output.xml" freq="60" friendlyPos="x" id="B1B0_1" lane="B1B0_1" pos="272.7"/>
    <e1Detector file="e1output.xml" freq="60" friendlyPos="x" id="B1B0_2" lane="B1B0_2" pos="272.7"/>
    <e1Detector file="e1output.xml" freq="60" friendlyPos="x" id="C0B0_0" lane="C0B0_0" pos="272.7"/>
    <e1Detector file="e1output.xml" freq="60" friendlyPos="x" id="C0B0_1" lane="C0B0_1" pos="272.7"/>
    <e1Detector file="e1output.xml" freq="60" friendlyPos="x" id="C0B0_2" lane="C0B0_2" pos="272.7"/>
    <e1Detector file="e1output.xml" freq="60" friendlyPos="x" id="bottom1B0_0" lane="bottom1B0_0" pos="286.29999999999995"/>
    <e1Detector file="e1output.xml" freq="60" friendlyPos="x" id="bottom1B0_1" lane="bottom1B0_1" pos="286.29999999999995"/>
    <e1Detector file="e1output.xml" freq="60" friendlyPos="x" id="bottom1B0_2" lane="bottom1B0_2" pos="286.29999999999995"/>
    <e1Detector file="e1output.xml" freq="60" friendlyPos="x" id="A1A0_0" lane="A1A0_0" pos="272.7"/>
    <e1Detector file="e1output.xml" freq="60" friendlyPos="x" id="A1A0_1" lane="A1A0_1" pos="272.7"/>
    <e1Detector file="e1output.xml" freq="60" friendlyPos="x" id="A1A0_2" lane="A1A0_2" pos="272.7"/>
    <e1Detector file="e1output.xml" freq="60" friendlyPos="x" id="B0A0_0" lane="B0A0_0" pos="272.7"/>
    <e1Detector file="e1output.xml" freq="60" friendlyPos="x" id="B0A0_1" lane="B0A0_1" pos="272.7"/>
    <e1Detector file="e1output.xml" freq="60" friendlyPos="x" id="B0A0_2" lane="B0A0_2" pos="272.7"/>
    <e1Detector file="e1output.xml" freq="60" friendlyPos="x" id="bottom0A0_0" lane="bottom0A0_0" pos="286.29999999999995"/>
    <e1Detector file="e1output.xml" freq="60" friendlyPos="x" id="bottom0A0_1" lane="bottom0A0_1" pos="286.29999999999995"/>
    <e1Detector file="e1output.xml" freq="60" friendlyPos="x" id="bottom0A0_2" lane="bottom0A0_2" pos="286.29999999999995"/>
    <e1Detector file="e1output.xml" freq="60" friendlyPos="x" id="left0A0_0" lane="left0A0_0" pos="286.29999999999995"/>
    <e1Detector file="e1output.xml" freq="60" friendlyPos="x" id="left0A0_1" lane="left0A0_1" pos="286.29999999999995"/>
    <e1Detector file="e1output.xml" freq="60" friendlyPos="x" id="left0A0_2" lane="left0A0_2" pos="286.29999999999995"/>
    <e1Detector file="e1output.xml" freq="60" friendlyPos="x" id="A1A2_0" lane="A1A2_0" pos="272.7"/>
    <e1Detector file="e1output.xml" freq="60" friendlyPos="x" id="A1A2_1" lane="A1A2_1" pos="272.7"/>
    <e1Detector file="e1output.xml" freq="60" friendlyPos="x" id="A1A2_2" lane="A1A2_2" pos="272.7"/>
    <e1Detector file="e1output.xml" freq="60" friendlyPos="x" id="A3A2_0" lane="A3A2_0" pos="272.7"/>
    <e1Detector file="e1output.xml" freq="60" friendlyPos="x" id="A3A2_1" lane="A3A2_1" pos="272.7"/>
    <e1Detector file="e1output.xml" freq="60" friendlyPos="x" id="A3A2_2" lane="A3A2_2" pos="272.7"/>
    <e1Detector file="e1output.xml" freq="60" friendlyPos="x" id="B2A2_0" lane="B2A2_0" pos="272.7"/>
    <e1Detector file="e1output.xml" freq="60" friendlyPos="x" id="B2A2_1" lane="B2A2_1" pos="272.7"/>
    <e1Detector file="e1output.xml" freq="60" friendlyPos="x" id="B2A2_2" lane="B2A2_2" pos="272.7"/>
    <e1Detector file="e1output.xml" freq="60" friendlyPos="x" id="left2A2_0" lane="left2A2_0" pos="286.29999999999995"/>
    <e1Detector file="e1output.xml" freq="60" friendlyPos="x" id="left2A2_1" lane="left2A2_1" pos="286.29999999999995"/>
    <e1Detector file="e1output.xml" freq="60" friendlyPos="x" id="left2A2_2" lane="left2A2_2" pos="286.29999999999995"/>
    <e1Detector file="e1output.xml" freq="60" friendlyPos="x" id="A1B1_0" lane="A1B1_0" pos="272.7"/>
    <e1Detector file="e1output.xml" freq="60" friendlyPos="x" id="A1B1_1" lane="A1B1_1" pos="272.7"/>
    <e1Detector file="e1output.xml" freq="60" friendlyPos="x" id="A1B1_2" lane="A1B1_2" pos="272.7"/>
    <e1Detector file="e1output.xml" freq="60" friendlyPos="x" id="B0B1_0" lane="B0B1_0" pos="272.7"/>
    <e1Detector file="e1output.xml" freq="60" friendlyPos="x" id="B0B1_1" lane="B0B1_1" pos="272.7"/>
    <e1Detector file="e1output.xml" freq="60" friendlyPos="x" id="B0B1_2" lane="B0B1_2" pos="272.7"/>
    <e1Detector file="e1output.xml" freq="60" friendlyPos="x" id="B2B1_0" lane="B2B1_0" pos="272.7"/>
    <e1Detector file="e1output.xml" freq="60" friendlyPos="x" id="B2B1_1" lane="B2B1_1" pos="272.7"/>
    <e1Detector file="e1output.xml" freq="60" friendlyPos="x" id="B2B1_2" lane="B2B1_2" pos="272.7"/>
    <e1Detector file="e1output.xml" freq="60" friendlyPos="x" id="C1B1_0" lane="C1B1_0" pos="272.7"/>
    <e1Detector file="e1output.xml" freq="60" friendlyPos="x" id="C1B1_1" lane="C1B1_1" pos="272.7"/>
    <e1Detector file="e1output.xml" freq="60" friendlyPos="x" id="C1B1_2" lane="C1B1_2" pos="272.7"/>
    <e1Detector file="e1output.xml" freq="60" friendlyPos="x" id="A2A3_0" lane="A2A3_0" pos="272.7"/>
    <e1Detector file="e1output.xml" freq="60" friendlyPos="x" id="A2A3_1" lane="A2A3_1" pos="272.7"/>
    <e1Detector file="e1output.xml" freq="60" friendlyPos="x" id="A2A3_2" lane="A2A3_2" pos="272.7"/>
    <e1Detector file="e1output.xml" freq="60" friendlyPos="x" id="B3A3_0" lane="B3A3_0" pos="272.7"/>
    <e1Detector file="e1output.xml" freq="60" friendlyPos="x" id="B3A3_1" lane="B3A3_1" pos="272.7"/>
    <e1Detector file="e1output.xml" freq="60" friendlyPos="x" id="B3A3_2" lane="B3A3_2" pos="272.7"/>
    <e1Detector file="e1output.xml" freq="60" friendlyPos="x" id="left3A3_0" lane="left3A3_0" pos="286.29999999999995"/>
    <e1Detector file="e1output.xml" freq="60" friendlyPos="x" id="left3A3_1" lane="left3A3_1" pos="286.29999999999995"/>
    <e1Detector file="e1output.xml" freq="60" friendlyPos="x" id="left3A3_2" lane="left3A3_2" pos="286.29999999999995"/>
    <e1Detector file="e1output.xml" freq="60" friendlyPos="x" id="top0A3_0" lane="top0A3_0" pos="286.29999999999995"/>
    <e1Detector file="e1output.xml" freq="60" friendlyPos="x" id="top0A3_1" lane="top0A3_1" pos="286.29999999999995"/>
    <e1Detector file="e1output.xml" freq="60" friendlyPos="x" id="top0A3_2" lane="top0A3_2" pos="286.29999999999995"/>
    <e1Detector file="e1output.xml" freq="60" friendlyPos="x" id="A2B2_0" lane="A2B2_0" pos="272.7"/>
    <e1Detector file="e1output.xml" freq="60" friendlyPos="x" id="A2B2_1" lane="A2B2_1" pos="272.7"/>
    <e1Detector file="e1output.xml" freq="60" friendlyPos="x" id="A2B2_2" lane="A2B2_2" pos="272.7"/>
    <e1Detector file="e1output.xml" freq="60" friendlyPos="x" id="B1B2_0" lane="B1B2_0" pos="272.7"/>
    <e1Detector file="e1output.xml" freq="60" friendlyPos="x" id="B1B2_1" lane="B1B2_1" pos="272.7"/>
    <e1Detector file="e1output.xml" freq="60" friendlyPos="x" id="B1B2_2" lane="B1B2_2" pos="272.7"/>
    <e1Detector file="e1output.xml" freq="60" friendlyPos="x" id="B3B2_0" lane="B3B2_0" pos="272.7"/>
    <e1Detector file="e1output.xml" freq="60" friendlyPos="x" id="B3B2_1" lane="B3B2_1" pos="272.7"/>
    <e1Detector file="e1output.xml" freq="60" friendlyPos="x" id="B3B2_2" lane="B3B2_2" pos="272.7"/>
    <e1Detector file="e1output.xml" freq="60" friendlyPos="x" id="C2B2_0" lane="C2B2_0" pos="272.7"/>
    <e1Detector file="e1output.xml" freq="60" friendlyPos="x" id="C2B2_1" lane="C2B2_1" pos="272.7"/>
    <e1Detector file="e1output.xml" freq="60" friendlyPos="x" id="C2B2_2" lane="C2B2_2" pos="272.7"/>
    <e1Detector file="e1output.xml" freq="60" friendlyPos="x" id="A3B3_0" lane="A3B3_0" pos="272.7"/>
    <e1Detector file="e1output.xml" freq="60" friendlyPos="x" id="A3B3_1" lane="A3B3_1" pos="272.7"/>
    <e1Detector file="e1output.xml" freq="60" friendlyPos="x" id="A3B3_2" lane="A3B3_2" pos="272.7"/>
    <e1Detector file="e1output.xml" freq="60" friendlyPos="x" id="B2B3_0" lane="B2B3_0" pos="272.7"/>
    <e1Detector file="e1output.xml" freq="60" friendlyPos="x" id="B2B3_1" lane="B2B3_1" pos="272.7"/>
    <e1Detector file="e1output.xml" freq="60" friendlyPos="x" id="B2B3_2" lane="B2B3_2" pos="272.7"/>
    <e1Detector file="e1output.xml" freq="60" friendlyPos="x" id="C3B3_0" lane="C3B3_0" pos="272.7"/>
    <e1Detector file="e1output.xml" freq="60" friendlyPos="x" id="C3B3_1" lane="C3B3_1" pos="272.7"/>
    <e1Detector file="e1output.xml" freq="60" friendlyPos="x" id="C3B3_2" lane="C3B3_2" pos="272.7"/>
    <e1Detector file="e1output.xml" freq="60" friendlyPos="x" id="top1B3_0" lane="top1B3_0" pos="286.29999999999995"/>
    <e1Detector file="e1output.xml" freq="60" friendlyPos="x" id="top1B3_1" lane="top1B3_1" pos="286.29999999999995"/>
    <e1Detector file="e1output.xml" freq="60" friendlyPos="x" id="top1B3_2" lane="top1B3_2" pos="286.29999999999995"/>
    <e1Detector file="e1output.xml" freq="60" friendlyPos="x" id="B0C0_0" lane="B0C0_0" pos="272.7"/>
    <e1Detector file="e1output.xml" freq="60" friendlyPos="x" id="B0C0_1" lane="B0C0_1" pos="272.7"/>
    <e1Detector file="e1output.xml" freq="60" friendlyPos="x" id="B0C0_2" lane="B0C0_2" pos="272.7"/>
    <e1Detector file="e1output.xml" freq="60" friendlyPos="x" id="C1C0_0" lane="C1C0_0" pos="272.7"/>
    <e1Detector file="e1output.xml" freq="60" friendlyPos="x" id="C1C0_1" lane="C1C0_1" pos="272.7"/>
    <e1Detector file="e1output.xml" freq="60" friendlyPos="x" id="C1C0_2" lane="C1C0_2" pos="272.7"/>
    <e1Detector file="e1output.xml" freq="60" friendlyPos="x" id="D0C0_0" lane="D0C0_0" pos="272.7"/>
    <e1Detector file="e1output.xml" freq="60" friendlyPos="x" id="D0C0_1" lane="D0C0_1" pos="272.7"/>
    <e1Detector file="e1output.xml" freq="60" friendlyPos="x" id="D0C0_2" lane="D0C0_2" pos="272.7"/>
    <e1Detector file="e1output.xml" freq="60" friendlyPos="x" id="bottom2C0_0" lane="bottom2C0_0" pos="286.29999999999995"/>
    <e1Detector file="e1output.xml" freq="60" friendlyPos="x" id="bottom2C0_1" lane="bottom2C0_1" pos="286.29999999999995"/>
    <e1Detector file="e1output.xml" freq="60" friendlyPos="x" id="bottom2C0_2" lane="bottom2C0_2" pos="286.29999999999995"/>
    <e1Detector file="e1output.xml" freq="60" friendlyPos="x" id="B1C1_0" lane="B1C1_0" pos="272.7"/>
    <e1Detector file="e1output.xml" freq="60" friendlyPos="x" id="B1C1_1" lane="B1C1_1" pos="272.7"/>
    <e1Detector file="e1output.xml" freq="60" friendlyPos="x" id="B1C1_2" lane="B1C1_2" pos="272.7"/>
    <e1Detector file="e1output.xml" freq="60" friendlyPos="x" id="C0C1_0" lane="C0C1_0" pos="272.7"/>
    <e1Detector file="e1output.xml" freq="60" friendlyPos="x" id="C0C1_1" lane="C0C1_1" pos="272.7"/>
    <e1Detector file="e1output.xml" freq="60" friendlyPos="x" id="C0C1_2" lane="C0C1_2" pos="272.7"/>
    <e1Detector file="e1output.xml" freq="60" friendlyPos="x" id="C2C1_0" lane="C2C1_0" pos="272.7"/>
    <e1Detector file="e1output.xml" freq="60" friendlyPos="x" id="C2C1_1" lane="C2C1_1" pos="272.7"/>
    <e1Detector file="e1output.xml" freq="60" friendlyPos="x" id="C2C1_2" lane="C2C1_2" pos="272.7"/>
    <e1Detector file="e1output.xml" freq="60" friendlyPos="x" id="D1C1_0" lane="D1C1_0" pos="272.7"/>
    <e1Detector file="e1output.xml" freq="60" friendlyPos="x" id="D1C1_1" lane="D1C1_1" pos="272.7"/>
    <e1Detector file="e1output.xml" freq="60" friendlyPos="x" id="D1C1_2" lane="D1C1_2" pos="272.7"/>
    <e1Detector file="e1output.xml" freq="60" friendlyPos="x" id="B2C2_0" lane="B2C2_0" pos="272.7"/>
    <e1Detector file="e1output.xml" freq="60" friendlyPos="x" id="B2C2_1" lane="B2C2_1" pos="272.7"/>
    <e1Detector file="e1output.xml" freq="60" friendlyPos="x" id="B2C2_2" lane="B2C2_2" pos="272.7"/>
    <e1Detector file="e1output.xml" freq="60" friendlyPos="x" id="C1C2_0" lane="C1C2_0" pos="272.7"/>
    <e1Detector file="e1output.xml" freq="60" friendlyPos="x" id="C1C2_1" lane="C1C2_1" pos="272.7"/>
    <e1Detector file="e1output.xml" freq="60" friendlyPos="x" id="C1C2_2" lane="C1C2_2" pos="272.7"/>
    <e1Detector file="e1output.xml" freq="60" friendlyPos="x" id="C3C2_0" lane="C3C2_0" pos="272.7"/>
    <e1Detector file="e1output.xml" freq="60" friendlyPos="x" id="C3C2_1" lane="C3C2_1" pos="272.7"/>
    <e1Detector file="e1output.xml" freq="60" friendlyPos="x" id="C3C2_2" lane="C3C2_2" pos="272.7"/>
    <e1Detector file="e1output.xml" freq="60" friendlyPos="x" id="D2C2_0" lane="D2C2_0" pos="272.7"/>
    <e1Detector file="e1output.xml" freq="60" friendlyPos="x" id="D2C2_1" lane="D2C2_1" pos="272.7"/>
    <e1Detector file="e1output.xml" freq="60" friendlyPos="x" id="D2C2_2" lane="D2C2_2" pos="272.7"/>
    <e1Detector file="e1output.xml" freq="60" friendlyPos="x" id="B3C3_0" lane="B3C3_0" pos="272.7"/>
    <e1Detector file="e1output.xml" freq="60" friendlyPos="x" id="B3C3_1" lane="B3C3_1" pos="272.7"/>
    <e1Detector file="e1output.xml" freq="60" friendlyPos="x" id="B3C3_2" lane="B3C3_2" pos="272.7"/>
    <e1Detector file="e1output.xml" freq="60" friendlyPos="x" id="C2C3_0" lane="C2C3_0" pos="272.7"/>
    <e1Detector file="e1output.xml" freq="60" friendlyPos="x" id="C2C3_1" lane="C2C3_1" pos="272.7"/>
    <e1Detector file="e1output.xml" freq="60" friendlyPos="x" id="C2C3_2" lane="C2C3_2" pos="272.7"/>
    <e1Detector file="e1output.xml" freq="60" friendlyPos="x" id="D3C3_0" lane="D3C3_0" pos="272.7"/>
    <e1Detector file="e1output.xml" freq="60" friendlyPos="x" id="D3C3_1" lane="D3C3_1" pos="272.7"/>
    <e1Detector file="e1output.xml" freq="60" friendlyPos="x" id="D3C3_2" lane="D3C3_2" pos="272.7"/>
    <e1Detector file="e1output.xml" freq="60" friendlyPos="x" id="top2C3_0" lane="top2C3_0" pos="286.29999999999995"/>
    <e1Detector file="e1output.xml" freq="60" friendlyPos="x" id="top2C3_1" lane="top2C3_1" pos="286.29999999999995"/>
    <e1Detector file="e1output.xml" freq="60" friendlyPos="x" id="top2C3_2" lane="top2C3_2" pos="286.29999999999995"/>
    <e1Detector file="e1output.xml" freq="60" friendlyPos="x" id="C0D0_0" lane="C0D0_0" pos="272.7"/>
    <e1Detector file="e1output.xml" freq="60" friendlyPos="x" id="C0D0_1" lane="C0D0_1" pos="272.7"/>
    <e1Detector file="e1output.xml" freq="60" friendlyPos="x" id="C0D0_2" lane="C0D0_2" pos="272.7"/>
    <e1Detector file="e1output.xml" freq="60" friendlyPos="x" id="D1D0_0" lane="D1D0_0" pos="272.7"/>
    <e1Detector file="e1output.xml" freq="60" friendlyPos="x" id="D1D0_1" lane="D1D0_1" pos="272.7"/>
    <e1Detector file="e1output.xml" freq="60" friendlyPos="x" id="D1D0_2" lane="D1D0_2" pos="272.7"/>
    <e1Detector file="e1output.xml" freq="60" friendlyPos="x" id="bottom3D0_0" lane="bottom3D0_0" pos="286.29999999999995"/>
    <e1Detector file="e1output.xml" freq="60" friendlyPos="x" id="bottom3D0_1" lane="bottom3D0_1" pos="286.29999999999995"/>
    <e1Detector file="e1output.xml" freq="60" friendlyPos="x" id="bottom3D0_2" lane="bottom3D0_2" pos="286.29999999999995"/>
    <e1Detector file="e1output.xml" freq="60" friendlyPos="x" id="right0D0_0" lane="right0D0_0" pos="286.29999999999995"/>
    <e1Detector file="e1output.xml" freq="60" friendlyPos="x" id="right0D0_1" lane="right0D0_1" pos="286.29999999999995"/>
    <e1Detector file="e1output.xml" freq="60" friendlyPos="x" id="right0D0_2" lane="right0D0_2" pos="286.29999999999995"/>
    <e1Detector file="e1output.xml" freq="60" friendlyPos="x" id="C1D1_0" lane="C1D1_0" pos="272.7"/>
    <e1Detector file="e1output.xml" freq="60" friendlyPos="x" id="C1D1_1" lane="C1D1_1" pos="272.7"/>
    <e1Detector file="e1output.xml" freq="60" friendlyPos="x" id="C1D1_2" lane="C1D1_2" pos="272.7"/>
    <e1Detector file="e1output.xml" freq="60" friendlyPos="x" id="D0D1_0" lane="D0D1_0" pos="272.7"/>
    <e1Detector file="e1output.xml" freq="60" friendlyPos="x" id="D0D1_1" lane="D0D1_1" pos="272.7"/>
    <e1Detector file="e1output.xml" freq="60" friendlyPos="x" id="D0D1_2" lane="D0D1_2" pos="272.7"/>
    <e1Detector file="e1output.xml" freq="60" friendlyPos="x" id="D2D1_0" lane="D2D1_0" pos="272.7"/>
    <e1Detector file="e1output.xml" freq="60" friendlyPos="x" id="D2D1_1" lane="D2D1_1" pos="272.7"/>
    <e1Detector file="e1output.xml" freq="60" friendlyPos="x" id="D2D1_2" lane="D2D1_2" pos="272.7"/>
    <e1Detector file="e1output.xml" freq="60" friendlyPos="x" id="right1D1_0" lane="right1D1_0" pos="286.29999999999995"/>
    <e1Detector file="e1output.xml" freq="60" friendlyPos="x" id="right1D1_1" lane="right1D1_1" pos="286.29999999999995"/>
    <e1Detector file="e1output.xml" freq="60" friendlyPos="x" id="right1D1_2" lane="right1D1_2" pos="286.29999999999995"/>
    <e1Detector file="e1output.xml" freq="60" friendlyPos="x" id="C2D2_0" lane="C2D2_0" pos="272.7"/>
    <e1Detector file="e1output.xml" freq="60" friendlyPos="x" id="C2D2_1" lane="C2D2_1" pos="272.7"/>
    <e1Detector file="e1output.xml" freq="60" friendlyPos="x" id="C2D2_2" lane="C2D2_2" pos="272.7"/>
    <e1Detector file="e1output.xml" freq="60" friendlyPos="x" id="D1D2_0" lane="D1D2_0" pos="272.7"/>
    <e1Detector file="e1output.xml" freq="60" friendlyPos="x" id="D1D2_1" lane="D1D2_1" pos="272.7"/>
    <e1Detector file="e1output.xml" freq="60" friendlyPos="x" id="D1D2_2" lane="D1D2_2" pos="272.7"/>
    <e1Detector file="e1output.xml" freq="60" friendlyPos="x" id="D3D2_0" lane="D3D2_0" pos="272.7"/>
    <e1Detector file="e1output.xml" freq="60" friendlyPos="x" id="D3D2_1" lane="D3D2_1" pos="272.7"/>
    <e1Detector file="e1output.xml" freq="60" friendlyPos="x" id="D3D2_2" lane="D3D2_2" pos="272.7"/>
    <e1Detector file="e1output.xml" freq="60" friendlyPos="x" id="right2D2_0" lane="right2D2_0" pos="286.29999999999995"/>
    <e1Detector file="e1output.xml" freq="60" friendlyPos="x" id="right2D2_1" lane="right2D2_1" pos="286.29999999999995"/>
    <e1Detector file="e1output.xml" freq="60" friendlyPos="x" id="right2D2_2" lane="right2D2_2" pos="286.29999999999995"/>
    <e1Detector file="e1output.xml" freq="60" friendlyPos="x" id="C3D3_0" lane="C3D3_0" pos="272.7"/>
    <e1Detector file="e1output.xml" freq="60" friendlyPos="x" id="C3D3_1" lane="C3D3_1" pos="272.7"/>
    <e1Detector file="e1output.xml" freq="60" friendlyPos="x" id="C3D3_2" lane="C3D3_2" pos="272.7"/>
    <e1Detector file="e1output.xml" freq="60" friendlyPos="x" id="D2D3_0" lane="D2D3_0" pos="272.7"/>
    <e1Detector file="e1output.xml" freq="60" friendlyPos="x" id="D2D3_1" lane="D2D3_1" pos="272.7"/>
    <e1Detector file="e1output.xml" freq="60" friendlyPos="x" id="D2D3_2" lane="D2D3_2" pos="272.7"/>
    <e1Detector file="e1output.xml" freq="60" friendlyPos="x" id="right3D3_0" lane="right3D3_0" pos="286.29999999999995"/>
    <e1Detector file="e1output.xml" freq="60" friendlyPos="x" id="right3D3_1" lane="right3D3_1" pos="286.29999999999995"/>
    <e1Detector file="e1output.xml" freq="60" friendlyPos="x" id="right3D3_2" lane="right3D3_2" pos="286.29999999999995"/>
    <e1Detector file="e1output.xml" freq="60" friendlyPos="x" id="top3D3_0" lane="top3D3_0" pos="286.29999999999995"/>
    <e1Detector file="e1output.xml" freq="60" friendlyPos="x" id="top3D3_1" lane="top3D3_1" pos="286.29999999999995"/>
    <e1Detector file="e1output.xml" freq="60" friendlyPos="x" id="top3D3_2" lane="top3D3_2" pos="286.29999999999995"/>
</additional>
