<additional>
  <tlLogic id="nt1" programID="0" offset="0" type="static">
      <phase duration="30" state="grrgGrgrrgGr"/>
      <phase duration="3" state="grrgyrgrrgyr"/>
      <phase duration="30" state="gGrgrrgGrgrr"/>
      <phase duration="3" state="gyrgrrgyrgrr"/>
      <phase duration="30" state="grrgrGgrrgrG"/>
      <phase duration="3" state="grrgrygrrgry"/>
      <phase duration="30" state="grGgrrgrGgrr"/>
      <phase duration="3" state="grygrrgrygrr"/>
      <phase duration="30" state="grrgrrgrrgGG"/>
      <phase duration="3" state="grrgrrgrrgyy"/>
      <phase duration="30" state="grrgGGgrrgrr"/>
      <phase duration="3" state="grrgyygrrgrr"/>
      <phase duration="30" state="grrgrrgGGgrr"/>
      <phase duration="3" state="grrgrrgyygrr"/>
      <phase duration="30" state="gGGgrrgrrgrr"/>
      <phase duration="3" state="gyygrrgrrgrr"/>
  </tlLogic>
  <tlLogic id="nt2" programID="0" offset="0" type="static">
      <phase duration="30" state="grrgGrgrrgGr"/>
      <phase duration="3" state="grrgyrgrrgyr"/>
      <phase duration="30" state="gGrgrrgGrgrr"/>
      <phase duration="3" state="gyrgrrgyrgrr"/>
      <phase duration="30" state="grrgrGgrrgrG"/>
      <phase duration="3" state="grrgrygrrgry"/>
      <phase duration="30" state="grGgrrgrGgrr"/>
      <phase duration="3" state="grygrrgrygrr"/>
      <phase duration="30" state="grrgrrgrrgGG"/>
      <phase duration="3" state="grrgrrgrrgyy"/>
      <phase duration="30" state="grrgGGgrrgrr"/>
      <phase duration="3" state="grrgyygrrgrr"/>
      <phase duration="30" state="grrgrrgGGgrr"/>
      <phase duration="3" state="grrgrrgyygrr"/>
      <phase duration="30" state="gGGgrrgrrgrr"/>
      <phase duration="3" state="gyygrrgrrgrr"/>
  </tlLogic>
  <tlLogic id="nt3" programID="0" offset="0" type="static">
      <phase duration="30" state="grrgGrgrrgGr"/>
      <phase duration="3" state="grrgyrgrrgyr"/>
      <phase duration="30" state="gGrgrrgGrgrr"/>
      <phase duration="3" state="gyrgrrgyrgrr"/>
      <phase duration="30" state="grrgrGgrrgrG"/>
      <phase duration="3" state="grrgrygrrgry"/>
      <phase duration="30" state="grGgrrgrGgrr"/>
      <phase duration="3" state="grygrrgrygrr"/>
      <phase duration="30" state="grrgrrgrrgGG"/>
      <phase duration="3" state="grrgrrgrrgyy"/>
      <phase duration="30" state="grrgGGgrrgrr"/>
      <phase duration="3" state="grrgyygrrgrr"/>
      <phase duration="30" state="grrgrrgGGgrr"/>
      <phase duration="3" state="grrgrrgyygrr"/>
      <phase duration="30" state="gGGgrrgrrgrr"/>
      <phase duration="3" state="gyygrrgrrgrr"/>
  </tlLogic>
  <tlLogic id="nt4" programID="0" offset="0" type="static">
      <phase duration="30" state="grrgGrgrrgGr"/>
      <phase duration="3" state="grrgyrgrrgyr"/>
      <phase duration="30" state="gGrgrrgGrgrr"/>
      <phase duration="3" state="gyrgrrgyrgrr"/>
      <phase duration="30" state="grrgrGgrrgrG"/>
      <phase duration="3" state="grrgrygrrgry"/>
      <phase duration="30" state="grGgrrgrGgrr"/>
      <phase duration="3" state="grygrrgrygrr"/>
      <phase duration="30" state="grrgrrgrrgGG"/>
      <phase duration="3" state="grrgrrgrrgyy"/>
      <phase duration="30" state="grrgGGgrrgrr"/>
      <phase duration="3" state="grrgyygrrgrr"/>
      <phase duration="30" state="grrgrrgGGgrr"/>
      <phase duration="3" state="grrgrrgyygrr"/>
      <phase duration="30" state="gGGgrrgrrgrr"/>
      <phase duration="3" state="gyygrrgrrgrr"/>
  </tlLogic>
  <tlLogic id="nt5" programID="0" offset="0" type="static">
      <phase duration="30" state="grrgGrgrrgGr"/>
      <phase duration="3" state="grrgyrgrrgyr"/>
      <phase duration="30" state="gGrgrrgGrgrr"/>
      <phase duration="3" state="gyrgrrgyrgrr"/>
      <phase duration="30" state="grrgrGgrrgrG"/>
      <phase duration="3" state="grrgrygrrgry"/>
      <phase duration="30" state="grGgrrgrGgrr"/>
      <phase duration="3" state="grygrrgrygrr"/>
      <phase duration="30" state="grrgrrgrrgGG"/>
      <phase duration="3" state="grrgrrgrrgyy"/>
      <phase duration="30" state="grrgGGgrrgrr"/>
      <phase duration="3" state="grrgyygrrgrr"/>
      <phase duration="30" state="grrgrrgGGgrr"/>
      <phase duration="3" state="grrgrrgyygrr"/>
      <phase duration="30" state="gGGgrrgrrgrr"/>
      <phase duration="3" state="gyygrrgrrgrr"/>
  </tlLogic>
  <tlLogic id="nt6" programID="0" offset="0" type="static">
      <phase duration="30" state="grrgGrgrrgGr"/>
      <phase duration="3" state="grrgyrgrrgyr"/>
      <phase duration="30" state="gGrgrrgGrgrr"/>
      <phase duration="3" state="gyrgrrgyrgrr"/>
      <phase duration="30" state="grrgrGgrrgrG"/>
      <phase duration="3" state="grrgrygrrgry"/>
      <phase duration="30" state="grGgrrgrGgrr"/>
      <phase duration="3" state="grygrrgrygrr"/>
      <phase duration="30" state="grrgrrgrrgGG"/>
      <phase duration="3" state="grrgrrgrrgyy"/>
      <phase duration="30" state="grrgGGgrrgrr"/>
      <phase duration="3" state="grrgyygrrgrr"/>
      <phase duration="30" state="grrgrrgGGgrr"/>
      <phase duration="3" state="grrgrrgyygrr"/>
      <phase duration="30" state="gGGgrrgrrgrr"/>
      <phase duration="3" state="gyygrrgrrgrr"/>
  </tlLogic>
  <tlLogic id="nt7" programID="0" offset="0" type="static">
      <phase duration="30" state="grrgGrgrrgGr"/>
      <phase duration="3" state="grrgyrgrrgyr"/>
      <phase duration="30" state="gGrgrrgGrgrr"/>
      <phase duration="3" state="gyrgrrgyrgrr"/>
      <phase duration="30" state="grrgrGgrrgrG"/>
      <phase duration="3" state="grrgrygrrgry"/>
      <phase duration="30" state="grGgrrgrGgrr"/>
      <phase duration="3" state="grygrrgrygrr"/>
      <phase duration="30" state="grrgrrgrrgGG"/>
      <phase duration="3" state="grrgrrgrrgyy"/>
      <phase duration="30" state="grrgGGgrrgrr"/>
      <phase duration="3" state="grrgyygrrgrr"/>
      <phase duration="30" state="grrgrrgGGgrr"/>
      <phase duration="3" state="grrgrrgyygrr"/>
      <phase duration="30" state="gGGgrrgrrgrr"/>
      <phase duration="3" state="gyygrrgrrgrr"/>
  </tlLogic>
  <tlLogic id="nt8" programID="0" offset="0" type="static">
      <phase duration="30" state="grrgGrgrrgGr"/>
      <phase duration="3" state="grrgyrgrrgyr"/>
      <phase duration="30" state="gGrgrrgGrgrr"/>
      <phase duration="3" state="gyrgrrgyrgrr"/>
      <phase duration="30" state="grrgrGgrrgrG"/>
      <phase duration="3" state="grrgrygrrgry"/>
      <phase duration="30" state="grGgrrgrGgrr"/>
      <phase duration="3" state="grygrrgrygrr"/>
      <phase duration="30" state="grrgrrgrrgGG"/>
      <phase duration="3" state="grrgrrgrrgyy"/>
      <phase duration="30" state="grrgGGgrrgrr"/>
      <phase duration="3" state="grrgyygrrgrr"/>
      <phase duration="30" state="grrgrrgGGgrr"/>
      <phase duration="3" state="grrgrrgyygrr"/>
      <phase duration="30" state="gGGgrrgrrgrr"/>
      <phase duration="3" state="gyygrrgrrgrr"/>
  </tlLogic>
  <tlLogic id="nt9" programID="0" offset="0" type="static">
      <phase duration="30" state="grrgGrgrrgGr"/>
      <phase duration="3" state="grrgyrgrrgyr"/>
      <phase duration="30" state="gGrgrrgGrgrr"/>
      <phase duration="3" state="gyrgrrgyrgrr"/>
      <phase duration="30" state="grrgrGgrrgrG"/>
      <phase duration="3" state="grrgrygrrgry"/>
      <phase duration="30" state="grGgrrgrGgrr"/>
      <phase duration="3" state="grygrrgrygrr"/>
      <phase duration="30" state="grrgrrgrrgGG"/>
      <phase duration="3" state="grrgrrgrrgyy"/>
      <phase duration="30" state="grrgGGgrrgrr"/>
      <phase duration="3" state="grrgyygrrgrr"/>
      <phase duration="30" state="grrgrrgGGgrr"/>
      <phase duration="3" state="grrgrrgyygrr"/>
      <phase duration="30" state="gGGgrrgrrgrr"/>
      <phase duration="3" state="gyygrrgrrgrr"/>
  </tlLogic>
  <tlLogic id="nt10" programID="0" offset="0" type="static">
      <phase duration="30" state="grrgGrgrrgGr"/>
      <phase duration="3" state="grrgyrgrrgyr"/>
      <phase duration="30" state="gGrgrrgGrgrr"/>
      <phase duration="3" state="gyrgrrgyrgrr"/>
      <phase duration="30" state="grrgrGgrrgrG"/>
      <phase duration="3" state="grrgrygrrgry"/>
      <phase duration="30" state="grGgrrgrGgrr"/>
      <phase duration="3" state="grygrrgrygrr"/>
      <phase duration="30" state="grrgrrgrrgGG"/>
      <phase duration="3" state="grrgrrgrrgyy"/>
      <phase duration="30" state="grrgGGgrrgrr"/>
      <phase duration="3" state="grrgyygrrgrr"/>
      <phase duration="30" state="grrgrrgGGgrr"/>
      <phase duration="3" state="grrgrrgyygrr"/>
      <phase duration="30" state="gGGgrrgrrgrr"/>
      <phase duration="3" state="gyygrrgrrgrr"/>
  </tlLogic>
  <tlLogic id="nt11" programID="0" offset="0" type="static">
      <phase duration="30" state="grrgGrgrrgGr"/>
      <phase duration="3" state="grrgyrgrrgyr"/>
      <phase duration="30" state="gGrgrrgGrgrr"/>
      <phase duration="3" state="gyrgrrgyrgrr"/>
      <phase duration="30" state="grrgrGgrrgrG"/>
      <phase duration="3" state="grrgrygrrgry"/>
      <phase duration="30" state="grGgrrgrGgrr"/>
      <phase duration="3" state="grygrrgrygrr"/>
      <phase duration="30" state="grrgrrgrrgGG"/>
      <phase duration="3" state="grrgrrgrrgyy"/>
      <phase duration="30" state="grrgGGgrrgrr"/>
      <phase duration="3" state="grrgyygrrgrr"/>
      <phase duration="30" state="grrgrrgGGgrr"/>
      <phase duration="3" state="grrgrrgyygrr"/>
      <phase duration="30" state="gGGgrrgrrgrr"/>
      <phase duration="3" state="gyygrrgrrgrr"/>
  </tlLogic>
  <tlLogic id="nt12" programID="0" offset="0" type="static">
      <phase duration="30" state="grrgGrgrrgGr"/>
      <phase duration="3" state="grrgyrgrrgyr"/>
      <phase duration="30" state="gGrgrrgGrgrr"/>
      <phase duration="3" state="gyrgrrgyrgrr"/>
      <phase duration="30" state="grrgrGgrrgrG"/>
      <phase duration="3" state="grrgrygrrgry"/>
      <phase duration="30" state="grGgrrgrGgrr"/>
      <phase duration="3" state="grygrrgrygrr"/>
      <phase duration="30" state="grrgrrgrrgGG"/>
      <phase duration="3" state="grrgrrgrrgyy"/>
      <phase duration="30" state="grrgGGgrrgrr"/>
      <phase duration="3" state="grrgyygrrgrr"/>
      <phase duration="30" state="grrgrrgGGgrr"/>
      <phase duration="3" state="grrgrrgyygrr"/>
      <phase duration="30" state="gGGgrrgrrgrr"/>
      <phase duration="3" state="gyygrrgrrgrr"/>
  </tlLogic>
  <tlLogic id="nt13" programID="0" offset="0" type="static">
      <phase duration="30" state="grrgGrgrrgGr"/>
      <phase duration="3" state="grrgyrgrrgyr"/>
      <phase duration="30" state="gGrgrrgGrgrr"/>
      <phase duration="3" state="gyrgrrgyrgrr"/>
      <phase duration="30" state="grrgrGgrrgrG"/>
      <phase duration="3" state="grrgrygrrgry"/>
      <phase duration="30" state="grGgrrgrGgrr"/>
      <phase duration="3" state="grygrrgrygrr"/>
      <phase duration="30" state="grrgrrgrrgGG"/>
      <phase duration="3" state="grrgrrgrrgyy"/>
      <phase duration="30" state="grrgGGgrrgrr"/>
      <phase duration="3" state="grrgyygrrgrr"/>
      <phase duration="30" state="grrgrrgGGgrr"/>
      <phase duration="3" state="grrgrrgyygrr"/>
      <phase duration="30" state="gGGgrrgrrgrr"/>
      <phase duration="3" state="gyygrrgrrgrr"/>
  </tlLogic>
  <tlLogic id="nt14" programID="0" offset="0" type="static">
      <phase duration="30" state="grrgGrgrrgGr"/>
      <phase duration="3" state="grrgyrgrrgyr"/>
      <phase duration="30" state="gGrgrrgGrgrr"/>
      <phase duration="3" state="gyrgrrgyrgrr"/>
      <phase duration="30" state="grrgrGgrrgrG"/>
      <phase duration="3" state="grrgrygrrgry"/>
      <phase duration="30" state="grGgrrgrGgrr"/>
      <phase duration="3" state="grygrrgrygrr"/>
      <phase duration="30" state="grrgrrgrrgGG"/>
      <phase duration="3" state="grrgrrgrrgyy"/>
      <phase duration="30" state="grrgGGgrrgrr"/>
      <phase duration="3" state="grrgyygrrgrr"/>
      <phase duration="30" state="grrgrrgGGgrr"/>
      <phase duration="3" state="grrgrrgyygrr"/>
      <phase duration="30" state="gGGgrrgrrgrr"/>
      <phase duration="3" state="gyygrrgrrgrr"/>
  </tlLogic>
  <tlLogic id="nt15" programID="0" offset="0" type="static">
      <phase duration="30" state="grrgGrgrrgGr"/>
      <phase duration="3" state="grrgyrgrrgyr"/>
      <phase duration="30" state="gGrgrrgGrgrr"/>
      <phase duration="3" state="gyrgrrgyrgrr"/>
      <phase duration="30" state="grrgrGgrrgrG"/>
      <phase duration="3" state="grrgrygrrgry"/>
      <phase duration="30" state="grGgrrgrGgrr"/>
      <phase duration="3" state="grygrrgrygrr"/>
      <phase duration="30" state="grrgrrgrrgGG"/>
      <phase duration="3" state="grrgrrgrrgyy"/>
      <phase duration="30" state="grrgGGgrrgrr"/>
      <phase duration="3" state="grrgyygrrgrr"/>
      <phase duration="30" state="grrgrrgGGgrr"/>
      <phase duration="3" state="grrgrrgyygrr"/>
      <phase duration="30" state="gGGgrrgrrgrr"/>
      <phase duration="3" state="gyygrrgrrgrr"/>
  </tlLogic>
  <tlLogic id="nt16" programID="0" offset="0" type="static">
      <phase duration="30" state="grrgGrgrrgGr"/>
      <phase duration="3" state="grrgyrgrrgyr"/>
      <phase duration="30" state="gGrgrrgGrgrr"/>
      <phase duration="3" state="gyrgrrgyrgrr"/>
      <phase duration="30" state="grrgrGgrrgrG"/>
      <phase duration="3" state="grrgrygrrgry"/>
      <phase duration="30" state="grGgrrgrGgrr"/>
      <phase duration="3" state="grygrrgrygrr"/>
      <phase duration="30" state="grrgrrgrrgGG"/>
      <phase duration="3" state="grrgrrgrrgyy"/>
      <phase duration="30" state="grrgGGgrrgrr"/>
      <phase duration="3" state="grrgyygrrgrr"/>
      <phase duration="30" state="grrgrrgGGgrr"/>
      <phase duration="3" state="grrgrrgyygrr"/>
      <phase duration="30" state="gGGgrrgrrgrr"/>
      <phase duration="3" state="gyygrrgrrgrr"/>
  </tlLogic>
  <tlLogic id="nt17" programID="0" offset="0" type="static">
      <phase duration="30" state="grrgGrgrrgGr"/>
      <phase duration="3" state="grrgyrgrrgyr"/>
      <phase duration="30" state="gGrgrrgGrgrr"/>
      <phase duration="3" state="gyrgrrgyrgrr"/>
      <phase duration="30" state="grrgrGgrrgrG"/>
      <phase duration="3" state="grrgrygrrgry"/>
      <phase duration="30" state="grGgrrgrGgrr"/>
      <phase duration="3" state="grygrrgrygrr"/>
      <phase duration="30" state="grrgrrgrrgGG"/>
      <phase duration="3" state="grrgrrgrrgyy"/>
      <phase duration="30" state="grrgGGgrrgrr"/>
      <phase duration="3" state="grrgyygrrgrr"/>
      <phase duration="30" state="grrgrrgGGgrr"/>
      <phase duration="3" state="grrgrrgyygrr"/>
      <phase duration="30" state="gGGgrrgrrgrr"/>
      <phase duration="3" state="gyygrrgrrgrr"/>
  </tlLogic>
  <tlLogic id="nt18" programID="0" offset="0" type="static">
      <phase duration="30" state="grrgGrgrrgGr"/>
      <phase duration="3" state="grrgyrgrrgyr"/>
      <phase duration="30" state="gGrgrrgGrgrr"/>
      <phase duration="3" state="gyrgrrgyrgrr"/>
      <phase duration="30" state="grrgrGgrrgrG"/>
      <phase duration="3" state="grrgrygrrgry"/>
      <phase duration="30" state="grGgrrgrGgrr"/>
      <phase duration="3" state="grygrrgrygrr"/>
      <phase duration="30" state="grrgrrgrrgGG"/>
      <phase duration="3" state="grrgrrgrrgyy"/>
      <phase duration="30" state="grrgGGgrrgrr"/>
      <phase duration="3" state="grrgyygrrgrr"/>
      <phase duration="30" state="grrgrrgGGgrr"/>
      <phase duration="3" state="grrgrrgyygrr"/>
      <phase duration="30" state="gGGgrrgrrgrr"/>
      <phase duration="3" state="gyygrrgrrgrr"/>
  </tlLogic>
  <tlLogic id="nt19" programID="0" offset="0" type="static">
      <phase duration="30" state="grrgGrgrrgGr"/>
      <phase duration="3" state="grrgyrgrrgyr"/>
      <phase duration="30" state="gGrgrrgGrgrr"/>
      <phase duration="3" state="gyrgrrgyrgrr"/>
      <phase duration="30" state="grrgrGgrrgrG"/>
      <phase duration="3" state="grrgrygrrgry"/>
      <phase duration="30" state="grGgrrgrGgrr"/>
      <phase duration="3" state="grygrrgrygrr"/>
      <phase duration="30" state="grrgrrgrrgGG"/>
      <phase duration="3" state="grrgrrgrrgyy"/>
      <phase duration="30" state="grrgGGgrrgrr"/>
      <phase duration="3" state="grrgyygrrgrr"/>
      <phase duration="30" state="grrgrrgGGgrr"/>
      <phase duration="3" state="grrgrrgyygrr"/>
      <phase duration="30" state="gGGgrrgrrgrr"/>
      <phase duration="3" state="gyygrrgrrgrr"/>
  </tlLogic>
  <tlLogic id="nt20" programID="0" offset="0" type="static">
      <phase duration="30" state="grrgGrgrrgGr"/>
      <phase duration="3" state="grrgyrgrrgyr"/>
      <phase duration="30" state="gGrgrrgGrgrr"/>
      <phase duration="3" state="gyrgrrgyrgrr"/>
      <phase duration="30" state="grrgrGgrrgrG"/>
      <phase duration="3" state="grrgrygrrgry"/>
      <phase duration="30" state="grGgrrgrGgrr"/>
      <phase duration="3" state="grygrrgrygrr"/>
      <phase duration="30" state="grrgrrgrrgGG"/>
      <phase duration="3" state="grrgrrgrrgyy"/>
      <phase duration="30" state="grrgGGgrrgrr"/>
      <phase duration="3" state="grrgyygrrgrr"/>
      <phase duration="30" state="grrgrrgGGgrr"/>
      <phase duration="3" state="grrgrrgyygrr"/>
      <phase duration="30" state="gGGgrrgrrgrr"/>
      <phase duration="3" state="gyygrrgrrgrr"/>
  </tlLogic>
  <tlLogic id="nt21" programID="0" offset="0" type="static">
      <phase duration="30" state="grrgGrgrrgGr"/>
      <phase duration="3" state="grrgyrgrrgyr"/>
      <phase duration="30" state="gGrgrrgGrgrr"/>
      <phase duration="3" state="gyrgrrgyrgrr"/>
      <phase duration="30" state="grrgrGgrrgrG"/>
      <phase duration="3" state="grrgrygrrgry"/>
      <phase duration="30" state="grGgrrgrGgrr"/>
      <phase duration="3" state="grygrrgrygrr"/>
      <phase duration="30" state="grrgrrgrrgGG"/>
      <phase duration="3" state="grrgrrgrrgyy"/>
      <phase duration="30" state="grrgGGgrrgrr"/>
      <phase duration="3" state="grrgyygrrgrr"/>
      <phase duration="30" state="grrgrrgGGgrr"/>
      <phase duration="3" state="grrgrrgyygrr"/>
      <phase duration="30" state="gGGgrrgrrgrr"/>
      <phase duration="3" state="gyygrrgrrgrr"/>
  </tlLogic>
  <tlLogic id="nt22" programID="0" offset="0" type="static">
      <phase duration="30" state="grrgGrgrrgGr"/>
      <phase duration="3" state="grrgyrgrrgyr"/>
      <phase duration="30" state="gGrgrrgGrgrr"/>
      <phase duration="3" state="gyrgrrgyrgrr"/>
      <phase duration="30" state="grrgrGgrrgrG"/>
      <phase duration="3" state="grrgrygrrgry"/>
      <phase duration="30" state="grGgrrgrGgrr"/>
      <phase duration="3" state="grygrrgrygrr"/>
      <phase duration="30" state="grrgrrgrrgGG"/>
      <phase duration="3" state="grrgrrgrrgyy"/>
      <phase duration="30" state="grrgGGgrrgrr"/>
      <phase duration="3" state="grrgyygrrgrr"/>
      <phase duration="30" state="grrgrrgGGgrr"/>
      <phase duration="3" state="grrgrrgyygrr"/>
      <phase duration="30" state="gGGgrrgrrgrr"/>
      <phase duration="3" state="gyygrrgrrgrr"/>
  </tlLogic>
  <tlLogic id="nt23" programID="0" offset="0" type="static">
      <phase duration="30" state="grrgGrgrrgGr"/>
      <phase duration="3" state="grrgyrgrrgyr"/>
      <phase duration="30" state="gGrgrrgGrgrr"/>
      <phase duration="3" state="gyrgrrgyrgrr"/>
      <phase duration="30" state="grrgrGgrrgrG"/>
      <phase duration="3" state="grrgrygrrgry"/>
      <phase duration="30" state="grGgrrgrGgrr"/>
      <phase duration="3" state="grygrrgrygrr"/>
      <phase duration="30" state="grrgrrgrrgGG"/>
      <phase duration="3" state="grrgrrgrrgyy"/>
      <phase duration="30" state="grrgGGgrrgrr"/>
      <phase duration="3" state="grrgyygrrgrr"/>
      <phase duration="30" state="grrgrrgGGgrr"/>
      <phase duration="3" state="grrgrrgyygrr"/>
      <phase duration="30" state="gGGgrrgrrgrr"/>
      <phase duration="3" state="gyygrrgrrgrr"/>
  </tlLogic>
  <tlLogic id="nt24" programID="0" offset="0" type="static">
      <phase duration="30" state="grrgGrgrrgGr"/>
      <phase duration="3" state="grrgyrgrrgyr"/>
      <phase duration="30" state="gGrgrrgGrgrr"/>
      <phase duration="3" state="gyrgrrgyrgrr"/>
      <phase duration="30" state="grrgrGgrrgrG"/>
      <phase duration="3" state="grrgrygrrgry"/>
      <phase duration="30" state="grGgrrgrGgrr"/>
      <phase duration="3" state="grygrrgrygrr"/>
      <phase duration="30" state="grrgrrgrrgGG"/>
      <phase duration="3" state="grrgrrgrrgyy"/>
      <phase duration="30" state="grrgGGgrrgrr"/>
      <phase duration="3" state="grrgyygrrgrr"/>
      <phase duration="30" state="grrgrrgGGgrr"/>
      <phase duration="3" state="grrgrrgyygrr"/>
      <phase duration="30" state="gGGgrrgrrgrr"/>
      <phase duration="3" state="gyygrrgrrgrr"/>
  </tlLogic>
  <tlLogic id="nt25" programID="0" offset="0" type="static">
      <phase duration="30" state="grrgGrgrrgGr"/>
      <phase duration="3" state="grrgyrgrrgyr"/>
      <phase duration="30" state="gGrgrrgGrgrr"/>
      <phase duration="3" state="gyrgrrgyrgrr"/>
      <phase duration="30" state="grrgrGgrrgrG"/>
      <phase duration="3" state="grrgrygrrgry"/>
      <phase duration="30" state="grGgrrgrGgrr"/>
      <phase duration="3" state="grygrrgrygrr"/>
      <phase duration="30" state="grrgrrgrrgGG"/>
      <phase duration="3" state="grrgrrgrrgyy"/>
      <phase duration="30" state="grrgGGgrrgrr"/>
      <phase duration="3" state="grrgyygrrgrr"/>
      <phase duration="30" state="grrgrrgGGgrr"/>
      <phase duration="3" state="grrgrrgyygrr"/>
      <phase duration="30" state="gGGgrrgrrgrr"/>
      <phase duration="3" state="gyygrrgrrgrr"/>
  </tlLogic>
</additional>
