<?xml version="1.0" encoding="UTF-8"?>

<!-- generated on 2022-07-20 14:25:30 by Eclipse SUMO netconvert Version 1.13.0
<configuration xmlns:xsi="http://www.w3.org/2001/XMLSchema-instance" xsi:noNamespaceSchemaLocation="http://sumo.dlr.de/xsd/netconvertConfiguration.xsd">

    <input>
        <node-files value="exp.nod.xml"/>
        <edge-files value="exp.edg.xml"/>
        <connection-files value="exp.con.xml"/>
        <tllogic-files value="exp.tll.xml"/>
        <type-files value="exp.typ.xml"/>
    </input>

    <output>
        <output-file value="exp.net.xml"/>
    </output>

    <report>
        <aggregate-warnings value="5"/>
    </report>

</configuration>
-->

<net version="1.9" junctionCornerDetail="5" limitTurnSpeed="5.50" xmlns:xsi="http://www.w3.org/2001/XMLSchema-instance" xsi:noNamespaceSchemaLocation="http://sumo.dlr.de/xsd/net_file.xsd">

    <location netOffset="75.00,75.00" convBoundary="0.00,0.00,950.00,950.00" origBoundary="-75.00,-75.00,875.00,875.00" projParameter="!"/>

    <type id="a" priority="3" numLanes="3" speed="20.00"/>
    <type id="b" priority="2" numLanes="3" speed="11.00"/>

    <edge id=":np1_0" function="internal">
        <lane id=":np1_0_0" index="0" speed="3.65" length="4.67" shape="73.40,0.00 74.20,-1.20 75.00,-1.60 75.80,-1.20 76.60,0.00"/>
    </edge>
    <edge id=":np10_0" function="internal">
        <lane id=":np10_0_0" index="0" speed="3.65" length="4.67" shape="950.00,873.40 951.20,874.20 951.60,875.00 951.20,875.80 950.00,876.60"/>
    </edge>
    <edge id=":np11_0" function="internal">
        <lane id=":np11_0_0" index="0" speed="3.65" length="4.67" shape="876.60,950.00 875.80,951.20 875.00,951.60 874.20,951.20 873.40,950.00"/>
    </edge>
    <edge id=":np12_0" function="internal">
        <lane id=":np12_0_0" index="0" speed="3.65" length="4.67" shape="676.60,950.00 675.80,951.20 675.00,951.60 674.20,951.20 673.40,950.00"/>
    </edge>
    <edge id=":np13_0" function="internal">
        <lane id=":np13_0_0" index="0" speed="3.65" length="4.67" shape="476.60,950.00 475.80,951.20 475.00,951.60 474.20,951.20 473.40,950.00"/>
    </edge>
    <edge id=":np14_0" function="internal">
        <lane id=":np14_0_0" index="0" speed="3.65" length="4.67" shape="276.60,950.00 275.80,951.20 275.00,951.60 274.20,951.20 273.40,950.00"/>
    </edge>
    <edge id=":np15_0" function="internal">
        <lane id=":np15_0_0" index="0" speed="3.65" length="4.67" shape="76.60,950.00 75.80,951.20 75.00,951.60 74.20,951.20 73.40,950.00"/>
    </edge>
    <edge id=":np16_0" function="internal">
        <lane id=":np16_0_0" index="0" speed="3.65" length="4.67" shape="0.00,876.60 -1.20,875.80 -1.60,875.00 -1.20,874.20 0.00,873.40"/>
    </edge>
    <edge id=":np17_0" function="internal">
        <lane id=":np17_0_0" index="0" speed="3.65" length="4.67" shape="0.00,676.60 -1.20,675.80 -1.60,675.00 -1.20,674.20 0.00,673.40"/>
    </edge>
    <edge id=":np18_0" function="internal">
        <lane id=":np18_0_0" index="0" speed="3.65" length="4.67" shape="0.00,476.60 -1.20,475.80 -1.60,475.00 -1.20,474.20 0.00,473.40"/>
    </edge>
    <edge id=":np19_0" function="internal">
        <lane id=":np19_0_0" index="0" speed="3.65" length="4.67" shape="0.00,276.60 -1.20,275.80 -1.60,275.00 -1.20,274.20 0.00,273.40"/>
    </edge>
    <edge id=":np2_0" function="internal">
        <lane id=":np2_0_0" index="0" speed="3.65" length="4.67" shape="273.40,0.00 274.20,-1.20 275.00,-1.60 275.80,-1.20 276.60,0.00"/>
    </edge>
    <edge id=":np20_0" function="internal">
        <lane id=":np20_0_0" index="0" speed="3.65" length="4.67" shape="0.00,76.60 -1.20,75.80 -1.60,75.00 -1.20,74.20 0.00,73.40"/>
    </edge>
    <edge id=":np3_0" function="internal">
        <lane id=":np3_0_0" index="0" speed="3.65" length="4.67" shape="473.40,0.00 474.20,-1.20 475.00,-1.60 475.80,-1.20 476.60,0.00"/>
    </edge>
    <edge id=":np4_0" function="internal">
        <lane id=":np4_0_0" index="0" speed="3.65" length="4.67" shape="673.40,0.00 674.20,-1.20 675.00,-1.60 675.80,-1.20 676.60,0.00"/>
    </edge>
    <edge id=":np5_0" function="internal">
        <lane id=":np5_0_0" index="0" speed="3.65" length="4.67" shape="873.40,0.00 874.20,-1.20 875.00,-1.60 875.80,-1.20 876.60,0.00"/>
    </edge>
    <edge id=":np6_0" function="internal">
        <lane id=":np6_0_0" index="0" speed="3.65" length="4.67" shape="950.00,73.40 951.20,74.20 951.60,75.00 951.20,75.80 950.00,76.60"/>
    </edge>
    <edge id=":np7_0" function="internal">
        <lane id=":np7_0_0" index="0" speed="3.65" length="4.67" shape="950.00,273.40 951.20,274.20 951.60,275.00 951.20,275.80 950.00,276.60"/>
    </edge>
    <edge id=":np8_0" function="internal">
        <lane id=":np8_0_0" index="0" speed="3.65" length="4.67" shape="950.00,473.40 951.20,474.20 951.60,475.00 951.20,475.80 950.00,476.60"/>
    </edge>
    <edge id=":np9_0" function="internal">
        <lane id=":np9_0_0" index="0" speed="3.65" length="4.67" shape="950.00,673.40 951.20,674.20 951.60,675.00 951.20,675.80 950.00,676.60"/>
    </edge>
    <edge id=":nt1_0" function="internal">
        <lane id=":nt1_0_0" index="0" speed="6.51" length="9.03" shape="67.00,88.60 66.65,86.15 65.60,84.40 63.85,83.35 61.40,83.00"/>
    </edge>
    <edge id=":nt1_1" function="internal">
        <lane id=":nt1_1_0" index="0" speed="11.00" length="27.20" shape="70.20,88.60 70.20,61.40"/>
    </edge>
    <edge id=":nt1_2" function="internal">
        <lane id=":nt1_2_0" index="0" speed="10.36" length="24.51" shape="73.40,88.60 74.35,81.95 77.20,77.20 81.95,74.35 88.60,73.40"/>
    </edge>
    <edge id=":nt1_3" function="internal">
        <lane id=":nt1_3_0" index="0" speed="6.51" length="9.03" shape="88.60,83.00 86.15,83.35 84.40,84.40 83.35,86.15 83.00,88.60"/>
    </edge>
    <edge id=":nt1_4" function="internal">
        <lane id=":nt1_4_0" index="0" speed="20.00" length="27.20" shape="88.60,79.80 61.40,79.80"/>
    </edge>
    <edge id=":nt1_5" function="internal">
        <lane id=":nt1_5_0" index="0" speed="10.36" length="24.51" shape="88.60,76.60 81.95,75.65 77.20,72.80 74.35,68.05 73.40,61.40"/>
    </edge>
    <edge id=":nt1_6" function="internal">
        <lane id=":nt1_6_0" index="0" speed="6.51" length="9.03" shape="83.00,61.40 83.35,63.85 84.40,65.60 86.15,66.65 88.60,67.00"/>
    </edge>
    <edge id=":nt1_7" function="internal">
        <lane id=":nt1_7_0" index="0" speed="11.00" length="27.20" shape="79.80,61.40 79.80,88.60"/>
    </edge>
    <edge id=":nt1_8" function="internal">
        <lane id=":nt1_8_0" index="0" speed="10.36" length="24.51" shape="76.60,61.40 75.65,68.05 72.80,72.80 68.05,75.65 61.40,76.60"/>
    </edge>
    <edge id=":nt1_9" function="internal">
        <lane id=":nt1_9_0" index="0" speed="6.51" length="9.03" shape="61.40,67.00 63.85,66.65 65.60,65.60 66.65,63.85 67.00,61.40"/>
    </edge>
    <edge id=":nt1_10" function="internal">
        <lane id=":nt1_10_0" index="0" speed="20.00" length="27.20" shape="61.40,70.20 88.60,70.20"/>
    </edge>
    <edge id=":nt1_11" function="internal">
        <lane id=":nt1_11_0" index="0" speed="10.36" length="24.51" shape="61.40,73.40 68.05,74.35 72.80,77.20 75.65,81.95 76.60,88.60"/>
    </edge>
    <edge id=":nt10_0" function="internal">
        <lane id=":nt10_0_0" index="0" speed="6.51" length="9.03" shape="867.00,288.60 866.65,286.15 865.60,284.40 863.85,283.35 861.40,283.00"/>
    </edge>
    <edge id=":nt10_1" function="internal">
        <lane id=":nt10_1_0" index="0" speed="11.00" length="27.20" shape="870.20,288.60 870.20,261.40"/>
    </edge>
    <edge id=":nt10_2" function="internal">
        <lane id=":nt10_2_0" index="0" speed="10.36" length="24.51" shape="873.40,288.60 874.35,281.95 877.20,277.20 881.95,274.35 888.60,273.40"/>
    </edge>
    <edge id=":nt10_3" function="internal">
        <lane id=":nt10_3_0" index="0" speed="6.51" length="9.03" shape="888.60,283.00 886.15,283.35 884.40,284.40 883.35,286.15 883.00,288.60"/>
    </edge>
    <edge id=":nt10_4" function="internal">
        <lane id=":nt10_4_0" index="0" speed="20.00" length="27.20" shape="888.60,279.80 861.40,279.80"/>
    </edge>
    <edge id=":nt10_5" function="internal">
        <lane id=":nt10_5_0" index="0" speed="10.36" length="24.51" shape="888.60,276.60 881.95,275.65 877.20,272.80 874.35,268.05 873.40,261.40"/>
    </edge>
    <edge id=":nt10_6" function="internal">
        <lane id=":nt10_6_0" index="0" speed="6.51" length="9.03" shape="883.00,261.40 883.35,263.85 884.40,265.60 886.15,266.65 888.60,267.00"/>
    </edge>
    <edge id=":nt10_7" function="internal">
        <lane id=":nt10_7_0" index="0" speed="11.00" length="27.20" shape="879.80,261.40 879.80,288.60"/>
    </edge>
    <edge id=":nt10_8" function="internal">
        <lane id=":nt10_8_0" index="0" speed="10.36" length="24.51" shape="876.60,261.40 875.65,268.05 872.80,272.80 868.05,275.65 861.40,276.60"/>
    </edge>
    <edge id=":nt10_9" function="internal">
        <lane id=":nt10_9_0" index="0" speed="6.51" length="9.03" shape="861.40,267.00 863.85,266.65 865.60,265.60 866.65,263.85 867.00,261.40"/>
    </edge>
    <edge id=":nt10_10" function="internal">
        <lane id=":nt10_10_0" index="0" speed="20.00" length="27.20" shape="861.40,270.20 888.60,270.20"/>
    </edge>
    <edge id=":nt10_11" function="internal">
        <lane id=":nt10_11_0" index="0" speed="10.36" length="24.51" shape="861.40,273.40 868.05,274.35 872.80,277.20 875.65,281.95 876.60,288.60"/>
    </edge>
    <edge id=":nt11_0" function="internal">
        <lane id=":nt11_0_0" index="0" speed="6.51" length="9.03" shape="67.00,488.60 66.65,486.15 65.60,484.40 63.85,483.35 61.40,483.00"/>
    </edge>
    <edge id=":nt11_1" function="internal">
        <lane id=":nt11_1_0" index="0" speed="11.00" length="27.20" shape="70.20,488.60 70.20,461.40"/>
    </edge>
    <edge id=":nt11_2" function="internal">
        <lane id=":nt11_2_0" index="0" speed="10.36" length="24.51" shape="73.40,488.60 74.35,481.95 77.20,477.20 81.95,474.35 88.60,473.40"/>
    </edge>
    <edge id=":nt11_3" function="internal">
        <lane id=":nt11_3_0" index="0" speed="6.51" length="9.03" shape="88.60,483.00 86.15,483.35 84.40,484.40 83.35,486.15 83.00,488.60"/>
    </edge>
    <edge id=":nt11_4" function="internal">
        <lane id=":nt11_4_0" index="0" speed="20.00" length="27.20" shape="88.60,479.80 61.40,479.80"/>
    </edge>
    <edge id=":nt11_5" function="internal">
        <lane id=":nt11_5_0" index="0" speed="10.36" length="24.51" shape="88.60,476.60 81.95,475.65 77.20,472.80 74.35,468.05 73.40,461.40"/>
    </edge>
    <edge id=":nt11_6" function="internal">
        <lane id=":nt11_6_0" index="0" speed="6.51" length="9.03" shape="83.00,461.40 83.35,463.85 84.40,465.60 86.15,466.65 88.60,467.00"/>
    </edge>
    <edge id=":nt11_7" function="internal">
        <lane id=":nt11_7_0" index="0" speed="11.00" length="27.20" shape="79.80,461.40 79.80,488.60"/>
    </edge>
    <edge id=":nt11_8" function="internal">
        <lane id=":nt11_8_0" index="0" speed="10.36" length="24.51" shape="76.60,461.40 75.65,468.05 72.80,472.80 68.05,475.65 61.40,476.60"/>
    </edge>
    <edge id=":nt11_9" function="internal">
        <lane id=":nt11_9_0" index="0" speed="6.51" length="9.03" shape="61.40,467.00 63.85,466.65 65.60,465.60 66.65,463.85 67.00,461.40"/>
    </edge>
    <edge id=":nt11_10" function="internal">
        <lane id=":nt11_10_0" index="0" speed="20.00" length="27.20" shape="61.40,470.20 88.60,470.20"/>
    </edge>
    <edge id=":nt11_11" function="internal">
        <lane id=":nt11_11_0" index="0" speed="10.36" length="24.51" shape="61.40,473.40 68.05,474.35 72.80,477.20 75.65,481.95 76.60,488.60"/>
    </edge>
    <edge id=":nt12_0" function="internal">
        <lane id=":nt12_0_0" index="0" speed="6.51" length="9.03" shape="267.00,488.60 266.65,486.15 265.60,484.40 263.85,483.35 261.40,483.00"/>
    </edge>
    <edge id=":nt12_1" function="internal">
        <lane id=":nt12_1_0" index="0" speed="11.00" length="27.20" shape="270.20,488.60 270.20,461.40"/>
    </edge>
    <edge id=":nt12_2" function="internal">
        <lane id=":nt12_2_0" index="0" speed="10.36" length="24.51" shape="273.40,488.60 274.35,481.95 277.20,477.20 281.95,474.35 288.60,473.40"/>
    </edge>
    <edge id=":nt12_3" function="internal">
        <lane id=":nt12_3_0" index="0" speed="6.51" length="9.03" shape="288.60,483.00 286.15,483.35 284.40,484.40 283.35,486.15 283.00,488.60"/>
    </edge>
    <edge id=":nt12_4" function="internal">
        <lane id=":nt12_4_0" index="0" speed="20.00" length="27.20" shape="288.60,479.80 261.40,479.80"/>
    </edge>
    <edge id=":nt12_5" function="internal">
        <lane id=":nt12_5_0" index="0" speed="10.36" length="24.51" shape="288.60,476.60 281.95,475.65 277.20,472.80 274.35,468.05 273.40,461.40"/>
    </edge>
    <edge id=":nt12_6" function="internal">
        <lane id=":nt12_6_0" index="0" speed="6.51" length="9.03" shape="283.00,461.40 283.35,463.85 284.40,465.60 286.15,466.65 288.60,467.00"/>
    </edge>
    <edge id=":nt12_7" function="internal">
        <lane id=":nt12_7_0" index="0" speed="11.00" length="27.20" shape="279.80,461.40 279.80,488.60"/>
    </edge>
    <edge id=":nt12_8" function="internal">
        <lane id=":nt12_8_0" index="0" speed="10.36" length="24.51" shape="276.60,461.40 275.65,468.05 272.80,472.80 268.05,475.65 261.40,476.60"/>
    </edge>
    <edge id=":nt12_9" function="internal">
        <lane id=":nt12_9_0" index="0" speed="6.51" length="9.03" shape="261.40,467.00 263.85,466.65 265.60,465.60 266.65,463.85 267.00,461.40"/>
    </edge>
    <edge id=":nt12_10" function="internal">
        <lane id=":nt12_10_0" index="0" speed="20.00" length="27.20" shape="261.40,470.20 288.60,470.20"/>
    </edge>
    <edge id=":nt12_11" function="internal">
        <lane id=":nt12_11_0" index="0" speed="10.36" length="24.51" shape="261.40,473.40 268.05,474.35 272.80,477.20 275.65,481.95 276.60,488.60"/>
    </edge>
    <edge id=":nt13_0" function="internal">
        <lane id=":nt13_0_0" index="0" speed="6.51" length="9.03" shape="467.00,488.60 466.65,486.15 465.60,484.40 463.85,483.35 461.40,483.00"/>
    </edge>
    <edge id=":nt13_1" function="internal">
        <lane id=":nt13_1_0" index="0" speed="11.00" length="27.20" shape="470.20,488.60 470.20,461.40"/>
    </edge>
    <edge id=":nt13_2" function="internal">
        <lane id=":nt13_2_0" index="0" speed="10.36" length="24.51" shape="473.40,488.60 474.35,481.95 477.20,477.20 481.95,474.35 488.60,473.40"/>
    </edge>
    <edge id=":nt13_3" function="internal">
        <lane id=":nt13_3_0" index="0" speed="6.51" length="9.03" shape="488.60,483.00 486.15,483.35 484.40,484.40 483.35,486.15 483.00,488.60"/>
    </edge>
    <edge id=":nt13_4" function="internal">
        <lane id=":nt13_4_0" index="0" speed="20.00" length="27.20" shape="488.60,479.80 461.40,479.80"/>
    </edge>
    <edge id=":nt13_5" function="internal">
        <lane id=":nt13_5_0" index="0" speed="10.36" length="24.51" shape="488.60,476.60 481.95,475.65 477.20,472.80 474.35,468.05 473.40,461.40"/>
    </edge>
    <edge id=":nt13_6" function="internal">
        <lane id=":nt13_6_0" index="0" speed="6.51" length="9.03" shape="483.00,461.40 483.35,463.85 484.40,465.60 486.15,466.65 488.60,467.00"/>
    </edge>
    <edge id=":nt13_7" function="internal">
        <lane id=":nt13_7_0" index="0" speed="11.00" length="27.20" shape="479.80,461.40 479.80,488.60"/>
    </edge>
    <edge id=":nt13_8" function="internal">
        <lane id=":nt13_8_0" index="0" speed="10.36" length="24.51" shape="476.60,461.40 475.65,468.05 472.80,472.80 468.05,475.65 461.40,476.60"/>
    </edge>
    <edge id=":nt13_9" function="internal">
        <lane id=":nt13_9_0" index="0" speed="6.51" length="9.03" shape="461.40,467.00 463.85,466.65 465.60,465.60 466.65,463.85 467.00,461.40"/>
    </edge>
    <edge id=":nt13_10" function="internal">
        <lane id=":nt13_10_0" index="0" speed="20.00" length="27.20" shape="461.40,470.20 488.60,470.20"/>
    </edge>
    <edge id=":nt13_11" function="internal">
        <lane id=":nt13_11_0" index="0" speed="10.36" length="24.51" shape="461.40,473.40 468.05,474.35 472.80,477.20 475.65,481.95 476.60,488.60"/>
    </edge>
    <edge id=":nt14_0" function="internal">
        <lane id=":nt14_0_0" index="0" speed="6.51" length="9.03" shape="667.00,488.60 666.65,486.15 665.60,484.40 663.85,483.35 661.40,483.00"/>
    </edge>
    <edge id=":nt14_1" function="internal">
        <lane id=":nt14_1_0" index="0" speed="11.00" length="27.20" shape="670.20,488.60 670.20,461.40"/>
    </edge>
    <edge id=":nt14_2" function="internal">
        <lane id=":nt14_2_0" index="0" speed="10.36" length="24.51" shape="673.40,488.60 674.35,481.95 677.20,477.20 681.95,474.35 688.60,473.40"/>
    </edge>
    <edge id=":nt14_3" function="internal">
        <lane id=":nt14_3_0" index="0" speed="6.51" length="9.03" shape="688.60,483.00 686.15,483.35 684.40,484.40 683.35,486.15 683.00,488.60"/>
    </edge>
    <edge id=":nt14_4" function="internal">
        <lane id=":nt14_4_0" index="0" speed="20.00" length="27.20" shape="688.60,479.80 661.40,479.80"/>
    </edge>
    <edge id=":nt14_5" function="internal">
        <lane id=":nt14_5_0" index="0" speed="10.36" length="24.51" shape="688.60,476.60 681.95,475.65 677.20,472.80 674.35,468.05 673.40,461.40"/>
    </edge>
    <edge id=":nt14_6" function="internal">
        <lane id=":nt14_6_0" index="0" speed="6.51" length="9.03" shape="683.00,461.40 683.35,463.85 684.40,465.60 686.15,466.65 688.60,467.00"/>
    </edge>
    <edge id=":nt14_7" function="internal">
        <lane id=":nt14_7_0" index="0" speed="11.00" length="27.20" shape="679.80,461.40 679.80,488.60"/>
    </edge>
    <edge id=":nt14_8" function="internal">
        <lane id=":nt14_8_0" index="0" speed="10.36" length="24.51" shape="676.60,461.40 675.65,468.05 672.80,472.80 668.05,475.65 661.40,476.60"/>
    </edge>
    <edge id=":nt14_9" function="internal">
        <lane id=":nt14_9_0" index="0" speed="6.51" length="9.03" shape="661.40,467.00 663.85,466.65 665.60,465.60 666.65,463.85 667.00,461.40"/>
    </edge>
    <edge id=":nt14_10" function="internal">
        <lane id=":nt14_10_0" index="0" speed="20.00" length="27.20" shape="661.40,470.20 688.60,470.20"/>
    </edge>
    <edge id=":nt14_11" function="internal">
        <lane id=":nt14_11_0" index="0" speed="10.36" length="24.51" shape="661.40,473.40 668.05,474.35 672.80,477.20 675.65,481.95 676.60,488.60"/>
    </edge>
    <edge id=":nt15_0" function="internal">
        <lane id=":nt15_0_0" index="0" speed="6.51" length="9.03" shape="867.00,488.60 866.65,486.15 865.60,484.40 863.85,483.35 861.40,483.00"/>
    </edge>
    <edge id=":nt15_1" function="internal">
        <lane id=":nt15_1_0" index="0" speed="11.00" length="27.20" shape="870.20,488.60 870.20,461.40"/>
    </edge>
    <edge id=":nt15_2" function="internal">
        <lane id=":nt15_2_0" index="0" speed="10.36" length="24.51" shape="873.40,488.60 874.35,481.95 877.20,477.20 881.95,474.35 888.60,473.40"/>
    </edge>
    <edge id=":nt15_3" function="internal">
        <lane id=":nt15_3_0" index="0" speed="6.51" length="9.03" shape="888.60,483.00 886.15,483.35 884.40,484.40 883.35,486.15 883.00,488.60"/>
    </edge>
    <edge id=":nt15_4" function="internal">
        <lane id=":nt15_4_0" index="0" speed="20.00" length="27.20" shape="888.60,479.80 861.40,479.80"/>
    </edge>
    <edge id=":nt15_5" function="internal">
        <lane id=":nt15_5_0" index="0" speed="10.36" length="24.51" shape="888.60,476.60 881.95,475.65 877.20,472.80 874.35,468.05 873.40,461.40"/>
    </edge>
    <edge id=":nt15_6" function="internal">
        <lane id=":nt15_6_0" index="0" speed="6.51" length="9.03" shape="883.00,461.40 883.35,463.85 884.40,465.60 886.15,466.65 888.60,467.00"/>
    </edge>
    <edge id=":nt15_7" function="internal">
        <lane id=":nt15_7_0" index="0" speed="11.00" length="27.20" shape="879.80,461.40 879.80,488.60"/>
    </edge>
    <edge id=":nt15_8" function="internal">
        <lane id=":nt15_8_0" index="0" speed="10.36" length="24.51" shape="876.60,461.40 875.65,468.05 872.80,472.80 868.05,475.65 861.40,476.60"/>
    </edge>
    <edge id=":nt15_9" function="internal">
        <lane id=":nt15_9_0" index="0" speed="6.51" length="9.03" shape="861.40,467.00 863.85,466.65 865.60,465.60 866.65,463.85 867.00,461.40"/>
    </edge>
    <edge id=":nt15_10" function="internal">
        <lane id=":nt15_10_0" index="0" speed="20.00" length="27.20" shape="861.40,470.20 888.60,470.20"/>
    </edge>
    <edge id=":nt15_11" function="internal">
        <lane id=":nt15_11_0" index="0" speed="10.36" length="24.51" shape="861.40,473.40 868.05,474.35 872.80,477.20 875.65,481.95 876.60,488.60"/>
    </edge>
    <edge id=":nt16_0" function="internal">
        <lane id=":nt16_0_0" index="0" speed="6.51" length="9.03" shape="67.00,688.60 66.65,686.15 65.60,684.40 63.85,683.35 61.40,683.00"/>
    </edge>
    <edge id=":nt16_1" function="internal">
        <lane id=":nt16_1_0" index="0" speed="11.00" length="27.20" shape="70.20,688.60 70.20,661.40"/>
    </edge>
    <edge id=":nt16_2" function="internal">
        <lane id=":nt16_2_0" index="0" speed="10.36" length="24.51" shape="73.40,688.60 74.35,681.95 77.20,677.20 81.95,674.35 88.60,673.40"/>
    </edge>
    <edge id=":nt16_3" function="internal">
        <lane id=":nt16_3_0" index="0" speed="6.51" length="9.03" shape="88.60,683.00 86.15,683.35 84.40,684.40 83.35,686.15 83.00,688.60"/>
    </edge>
    <edge id=":nt16_4" function="internal">
        <lane id=":nt16_4_0" index="0" speed="20.00" length="27.20" shape="88.60,679.80 61.40,679.80"/>
    </edge>
    <edge id=":nt16_5" function="internal">
        <lane id=":nt16_5_0" index="0" speed="10.36" length="24.51" shape="88.60,676.60 81.95,675.65 77.20,672.80 74.35,668.05 73.40,661.40"/>
    </edge>
    <edge id=":nt16_6" function="internal">
        <lane id=":nt16_6_0" index="0" speed="6.51" length="9.03" shape="83.00,661.40 83.35,663.85 84.40,665.60 86.15,666.65 88.60,667.00"/>
    </edge>
    <edge id=":nt16_7" function="internal">
        <lane id=":nt16_7_0" index="0" speed="11.00" length="27.20" shape="79.80,661.40 79.80,688.60"/>
    </edge>
    <edge id=":nt16_8" function="internal">
        <lane id=":nt16_8_0" index="0" speed="10.36" length="24.51" shape="76.60,661.40 75.65,668.05 72.80,672.80 68.05,675.65 61.40,676.60"/>
    </edge>
    <edge id=":nt16_9" function="internal">
        <lane id=":nt16_9_0" index="0" speed="6.51" length="9.03" shape="61.40,667.00 63.85,666.65 65.60,665.60 66.65,663.85 67.00,661.40"/>
    </edge>
    <edge id=":nt16_10" function="internal">
        <lane id=":nt16_10_0" index="0" speed="20.00" length="27.20" shape="61.40,670.20 88.60,670.20"/>
    </edge>
    <edge id=":nt16_11" function="internal">
        <lane id=":nt16_11_0" index="0" speed="10.36" length="24.51" shape="61.40,673.40 68.05,674.35 72.80,677.20 75.65,681.95 76.60,688.60"/>
    </edge>
    <edge id=":nt17_0" function="internal">
        <lane id=":nt17_0_0" index="0" speed="6.51" length="9.03" shape="267.00,688.60 266.65,686.15 265.60,684.40 263.85,683.35 261.40,683.00"/>
    </edge>
    <edge id=":nt17_1" function="internal">
        <lane id=":nt17_1_0" index="0" speed="11.00" length="27.20" shape="270.20,688.60 270.20,661.40"/>
    </edge>
    <edge id=":nt17_2" function="internal">
        <lane id=":nt17_2_0" index="0" speed="10.36" length="24.51" shape="273.40,688.60 274.35,681.95 277.20,677.20 281.95,674.35 288.60,673.40"/>
    </edge>
    <edge id=":nt17_3" function="internal">
        <lane id=":nt17_3_0" index="0" speed="6.51" length="9.03" shape="288.60,683.00 286.15,683.35 284.40,684.40 283.35,686.15 283.00,688.60"/>
    </edge>
    <edge id=":nt17_4" function="internal">
        <lane id=":nt17_4_0" index="0" speed="20.00" length="27.20" shape="288.60,679.80 261.40,679.80"/>
    </edge>
    <edge id=":nt17_5" function="internal">
        <lane id=":nt17_5_0" index="0" speed="10.36" length="24.51" shape="288.60,676.60 281.95,675.65 277.20,672.80 274.35,668.05 273.40,661.40"/>
    </edge>
    <edge id=":nt17_6" function="internal">
        <lane id=":nt17_6_0" index="0" speed="6.51" length="9.03" shape="283.00,661.40 283.35,663.85 284.40,665.60 286.15,666.65 288.60,667.00"/>
    </edge>
    <edge id=":nt17_7" function="internal">
        <lane id=":nt17_7_0" index="0" speed="11.00" length="27.20" shape="279.80,661.40 279.80,688.60"/>
    </edge>
    <edge id=":nt17_8" function="internal">
        <lane id=":nt17_8_0" index="0" speed="10.36" length="24.51" shape="276.60,661.40 275.65,668.05 272.80,672.80 268.05,675.65 261.40,676.60"/>
    </edge>
    <edge id=":nt17_9" function="internal">
        <lane id=":nt17_9_0" index="0" speed="6.51" length="9.03" shape="261.40,667.00 263.85,666.65 265.60,665.60 266.65,663.85 267.00,661.40"/>
    </edge>
    <edge id=":nt17_10" function="internal">
        <lane id=":nt17_10_0" index="0" speed="20.00" length="27.20" shape="261.40,670.20 288.60,670.20"/>
    </edge>
    <edge id=":nt17_11" function="internal">
        <lane id=":nt17_11_0" index="0" speed="10.36" length="24.51" shape="261.40,673.40 268.05,674.35 272.80,677.20 275.65,681.95 276.60,688.60"/>
    </edge>
    <edge id=":nt18_0" function="internal">
        <lane id=":nt18_0_0" index="0" speed="6.51" length="9.03" shape="467.00,688.60 466.65,686.15 465.60,684.40 463.85,683.35 461.40,683.00"/>
    </edge>
    <edge id=":nt18_1" function="internal">
        <lane id=":nt18_1_0" index="0" speed="11.00" length="27.20" shape="470.20,688.60 470.20,661.40"/>
    </edge>
    <edge id=":nt18_2" function="internal">
        <lane id=":nt18_2_0" index="0" speed="10.36" length="24.51" shape="473.40,688.60 474.35,681.95 477.20,677.20 481.95,674.35 488.60,673.40"/>
    </edge>
    <edge id=":nt18_3" function="internal">
        <lane id=":nt18_3_0" index="0" speed="6.51" length="9.03" shape="488.60,683.00 486.15,683.35 484.40,684.40 483.35,686.15 483.00,688.60"/>
    </edge>
    <edge id=":nt18_4" function="internal">
        <lane id=":nt18_4_0" index="0" speed="20.00" length="27.20" shape="488.60,679.80 461.40,679.80"/>
    </edge>
    <edge id=":nt18_5" function="internal">
        <lane id=":nt18_5_0" index="0" speed="10.36" length="24.51" shape="488.60,676.60 481.95,675.65 477.20,672.80 474.35,668.05 473.40,661.40"/>
    </edge>
    <edge id=":nt18_6" function="internal">
        <lane id=":nt18_6_0" index="0" speed="6.51" length="9.03" shape="483.00,661.40 483.35,663.85 484.40,665.60 486.15,666.65 488.60,667.00"/>
    </edge>
    <edge id=":nt18_7" function="internal">
        <lane id=":nt18_7_0" index="0" speed="11.00" length="27.20" shape="479.80,661.40 479.80,688.60"/>
    </edge>
    <edge id=":nt18_8" function="internal">
        <lane id=":nt18_8_0" index="0" speed="10.36" length="24.51" shape="476.60,661.40 475.65,668.05 472.80,672.80 468.05,675.65 461.40,676.60"/>
    </edge>
    <edge id=":nt18_9" function="internal">
        <lane id=":nt18_9_0" index="0" speed="6.51" length="9.03" shape="461.40,667.00 463.85,666.65 465.60,665.60 466.65,663.85 467.00,661.40"/>
    </edge>
    <edge id=":nt18_10" function="internal">
        <lane id=":nt18_10_0" index="0" speed="20.00" length="27.20" shape="461.40,670.20 488.60,670.20"/>
    </edge>
    <edge id=":nt18_11" function="internal">
        <lane id=":nt18_11_0" index="0" speed="10.36" length="24.51" shape="461.40,673.40 468.05,674.35 472.80,677.20 475.65,681.95 476.60,688.60"/>
    </edge>
    <edge id=":nt19_0" function="internal">
        <lane id=":nt19_0_0" index="0" speed="6.51" length="9.03" shape="667.00,688.60 666.65,686.15 665.60,684.40 663.85,683.35 661.40,683.00"/>
    </edge>
    <edge id=":nt19_1" function="internal">
        <lane id=":nt19_1_0" index="0" speed="11.00" length="27.20" shape="670.20,688.60 670.20,661.40"/>
    </edge>
    <edge id=":nt19_2" function="internal">
        <lane id=":nt19_2_0" index="0" speed="10.36" length="24.51" shape="673.40,688.60 674.35,681.95 677.20,677.20 681.95,674.35 688.60,673.40"/>
    </edge>
    <edge id=":nt19_3" function="internal">
        <lane id=":nt19_3_0" index="0" speed="6.51" length="9.03" shape="688.60,683.00 686.15,683.35 684.40,684.40 683.35,686.15 683.00,688.60"/>
    </edge>
    <edge id=":nt19_4" function="internal">
        <lane id=":nt19_4_0" index="0" speed="20.00" length="27.20" shape="688.60,679.80 661.40,679.80"/>
    </edge>
    <edge id=":nt19_5" function="internal">
        <lane id=":nt19_5_0" index="0" speed="10.36" length="24.51" shape="688.60,676.60 681.95,675.65 677.20,672.80 674.35,668.05 673.40,661.40"/>
    </edge>
    <edge id=":nt19_6" function="internal">
        <lane id=":nt19_6_0" index="0" speed="6.51" length="9.03" shape="683.00,661.40 683.35,663.85 684.40,665.60 686.15,666.65 688.60,667.00"/>
    </edge>
    <edge id=":nt19_7" function="internal">
        <lane id=":nt19_7_0" index="0" speed="11.00" length="27.20" shape="679.80,661.40 679.80,688.60"/>
    </edge>
    <edge id=":nt19_8" function="internal">
        <lane id=":nt19_8_0" index="0" speed="10.36" length="24.51" shape="676.60,661.40 675.65,668.05 672.80,672.80 668.05,675.65 661.40,676.60"/>
    </edge>
    <edge id=":nt19_9" function="internal">
        <lane id=":nt19_9_0" index="0" speed="6.51" length="9.03" shape="661.40,667.00 663.85,666.65 665.60,665.60 666.65,663.85 667.00,661.40"/>
    </edge>
    <edge id=":nt19_10" function="internal">
        <lane id=":nt19_10_0" index="0" speed="20.00" length="27.20" shape="661.40,670.20 688.60,670.20"/>
    </edge>
    <edge id=":nt19_11" function="internal">
        <lane id=":nt19_11_0" index="0" speed="10.36" length="24.51" shape="661.40,673.40 668.05,674.35 672.80,677.20 675.65,681.95 676.60,688.60"/>
    </edge>
    <edge id=":nt2_0" function="internal">