<routes>
  <vType id="type1" length="5" accel="5" decel="10"/>
  <flow id="f_0_0" departPos="random_free" from="np12_nt24" to="nt2_np2" begin="0" end="300" vehsPerHour="33" type="type1"/>
  <flow id="f_0_1" departPos="random_free" from="np13_nt23" to="nt3_np3" begin="0" end="300" vehsPerHour="80" type="type1"/>
  <flow id="f_0_2" departPos="random_free" from="np14_nt22" to="nt4_np4" begin="0" end="300" vehsPerHour="20" type="type1"/>
  <flow id="f_0_3" departPos="random_free" from="np16_nt21" to="nt5_np6" begin="0" end="300" vehsPerHour="27" type="type1"/>
  <flow id="f_0_4" departPos="random_free" from="np18_nt11" to="nt15_np8" begin="0" end="300" vehsPerHour="187" type="type1"/>
  <flow id="f_0_5" departPos="random_free" from="np20_nt1" to="nt25_np10" begin="0" end="300" vehsPerHour="27" type="type1"/>
  <flow id="f_0_6" departPos="random_free" from="np2_nt2" to="nt22_np14" begin="0" end="300" vehsPerHour="20" type="type1"/>
  <flow id="f_0_7" departPos="random_free" from="np3_nt3" to="nt23_np13" begin="0" end="300" vehsPerHour="20" type="type1"/>
  <flow id="f_0_8" departPos="random_free" from="np4_nt4" to="nt24_np12" begin="0" end="300" vehsPerHour="20" type="type1"/>
  <flow id="f_0_9" departPos="random_free" from="np6_nt5" to="nt1_np20" begin="0" end="300" vehsPerHour="20" type="type1"/>
  <flow id="f_0_10" departPos="random_free" from="np8_nt15" to="nt11_np18" begin="0" end="300" vehsPerHour="20" type="type1"/>
  <flow id="f_0_11" departPos="random_free" from="np10_nt25" to="nt21_np16" begin="0" end="300" vehsPerHour="20" type="type1"/>
  <flow id="f_1_0" departPos="random_free" from="np12_nt24" to="nt2_np2" begin="300" end="600" vehsPerHour="157" type="type1"/>
  <flow id="f_1_1" departPos="random_free" from="np13_nt23" to="nt3_np3" begin="300" end="600" vehsPerHour="257" type="type1"/>
  <flow id="f_1_2" departPos="random_free" from="np14_nt22" to="nt4_np4" begin="300" end="600" vehsPerHour="127" type="type1"/>
  <flow id="f_1_3" departPos="random_free" from="np16_nt21" to="nt5_np6" begin="300" end="600" vehsPerHour="155" type="type1"/>
  <flow id="f_1_4" departPos="random_free" from="np18_nt11" to="nt15_np8" begin="300" end="600" vehsPerHour="403" type="type1"/>
  <flow id="f_1_5" departPos="random_free" from="np20_nt1" to="nt25_np10" begin="300" end="600" vehsPerHour="160" type="type1"/>
  <flow id="f_1_6" departPos="random_free" from="np2_nt2" to="nt22_np14" begin="300" end="600" vehsPerHour="20" type="type1"/>
  <flow id="f_1_7" departPos="random_free" from="np3_nt3" to="nt23_np13" begin="300" end="600" vehsPerHour="20" type="type1"/>
  <flow id="f_1_8" departPos="random_free" from="np4_nt4" to="nt24_np12" begin="300" end="600" vehsPerHour="20" type="type1"/>
  <flow id="f_1_9" departPos="random_free" from="np6_nt5" to="nt1_np20" begin="300" end="600" vehsPerHour="20" type="type1"/>
  <flow id="f_1_10" departPos="random_free" from="np8_nt15" to="nt11_np18" begin="300" end="600" vehsPerHour="20" type="type1"/>
  <flow id="f_1_11" departPos="random_free" from="np10_nt25" to="nt21_np16" begin="300" end="600" vehsPerHour="20" type="type1"/>
  <flow id="f_2_0" departPos="random_free" from="np12_nt24" to="nt2_np2" begin="600" end="900" vehsPerHour="443" type="type1"/>
  <flow id="f_2_1" departPos="random_free" from="np13_nt23" to="nt3_np3" begin="600" end="900" vehsPerHour="572" type="type1"/>
  <flow id="f_2_2" departPos="random_free" from="np14_nt22" to="nt4_np4" begin="600" end="900" vehsPerHour="506" type="type1"/>
  <flow id="f_2_3" departPos="random_free" from="np16_nt21" to="nt5_np6" begin="600" end="900" vehsPerHour="453" type="type1"/>
  <flow id="f_2_4" departPos="random_free" from="np18_nt11" to="nt15_np8" begin="600" end="900" vehsPerHour="600" type="type1"/>
  <flow id="f_2_5" departPos="random_free" from="np20_nt1" to="nt25_np10" begin="600" end="900" vehsPerHour="508" type="type1"/>
  <flow id="f_2_6" departPos="random_free" from="np2_nt2" to="nt22_np14" begin="600" end="900" vehsPerHour="20" type="type1"/>
  <flow id="f_2_7" departPos="random_free" from="np3_nt3" to="nt23_np13" begin="600" end="900" vehsPerHour="20" type="type1"/>
  <flow id="f_2_8" departPos="random_free" from="np4_nt4" to="nt24_np12" begin="600" end="900" vehsPerHour="20" type="type1"/>
  <flow id="f_2_9" departPos="random_free" from="np6_nt5" to="nt1_np20" begin="600" end="900" vehsPerHour="20" type="type1"/>
  <flow id="f_2_10" departPos="random_free" from="np8_nt15" to="nt11_np18" begin="600" end="900" vehsPerHour="20" type="type1"/>
  <flow id="f_2_11" departPos="random_free" from="np10_nt25" to="nt21_np16" begin="600" end="900" vehsPerHour="20" type="type1"/>
  <flow id="f_3_0" departPos="random_free" from="np12_nt24" to="nt2_np2" begin="900" end="1200" vehsPerHour="743" type="type1"/>
  <flow id="f_3_1" departPos="random_free" from="np13_nt23" to="nt3_np3" begin="900" end="1200" vehsPerHour="881" type="type1"/>
  <flow id="f_3_2" departPos="random_free" from="np14_nt22" to="nt4_np4" begin="900" end="1200" vehsPerHour="839" type="type1"/>
  <flow id="f_3_3" departPos="random_free" from="np16_nt21" to="nt5_np6" begin="900" end="1200" vehsPerHour="684" type="type1"/>
  <flow id="f_3_4" departPos="random_free" from="np18_nt11" to="nt15_np8" begin="900" end="1200" vehsPerHour="618" type="type1"/>
  <flow id="f_3_5" departPos="random_free" from="np20_nt1" to="nt25_np10" begin="900" end="1200" vehsPerHour="886" type="type1"/>
  <flow id="f_3_6" departPos="random_free" from="np2_nt2" to="nt22_np14" begin="900" end="1200" vehsPerHour="20" type="type1"/>
  <flow id="f_3_7" departPos="random_free" from="np3_nt3" to="nt23_np13" begin="900" end="1200" vehsPerHour="22" type="type1"/>
  <flow id="f_3_8" departPos="random_free" from="np4_nt4" to="nt24_np12" begin="900" end="1200" vehsPerHour="20" type="type1"/>
  <flow id="f_3_9" departPos="random_free" from="np6_nt5" to="nt1_np20" begin="900" end="1200" vehsPerHour="20" type="type1"/>
  <flow id="f_3_10" departPos="random_free" from="np8_nt15" to="nt11_np18" begin="900" end="1200" vehsPerHour="20" type="type1"/>
  <flow id="f_3_11" departPos="random_free" from="np10_nt25" to="nt21_np16" begin="900" end="1200" vehsPerHour="20" type="type1"/>
  <flow id="f_4_0" departPos="random_free" from="np12_nt24" to="nt2_np2" begin="1200" end="1500" vehsPerHour="741" type="type1"/>
  <flow id="f_4_1" departPos="random_free" from="np13_nt23" to="nt3_np3" begin="1200" end="1500" vehsPerHour="940" type="type1"/>
  <flow id="f_4_2" departPos="random_free" from="np14_nt22" to="nt4_np4" begin="1200" end="1500" vehsPerHour="581" type="type1"/>
  <flow id="f_4_3" departPos="random_free" from="np16_nt21" to="nt5_np6" begin="1200" end="1500" vehsPerHour="535" type="type1"/>
  <flow id="f_4_4" departPos="random_free" from="np18_nt11" to="nt15_np8" begin="1200" end="1500" vehsPerHour="438" type="type1"/>
  <flow id="f_4_5" departPos="random_free" from="np20_nt1" to="nt25_np10" begin="1200" end="1500" vehsPerHour="850" type="type1"/>
  <flow id="f_4_6" departPos="random_free" from="np2_nt2" to="nt22_np14" begin="1200" end="1500" vehsPerHour="20" type="type1"/>
  <flow id="f_4_7" departPos="random_free" from="np3_nt3" to="nt23_np13" begin="1200" end="1500" vehsPerHour="138" type="type1"/>
  <flow id="f_4_8" departPos="random_free" from="np4_nt4" to="nt24_np12" begin="1200" end="1500" vehsPerHour="20" type="type1"/>
  <flow id="f_4_9" departPos="random_free" from="np6_nt5" to="nt1_np20" begin="1200" end="1500" vehsPerHour="20" type="type1"/>
  <flow id="f_4_10" departPos="random_free" from="np8_nt15" to="nt11_np18" begin="1200" end="1500" vehsPerHour="20" type="type1"/>
  <flow id="f_4_11" departPos="random_free" from="np10_nt25" to="nt21_np16" begin="1200" end="1500" vehsPerHour="20" type="type1"/>
  <flow id="f_5_0" departPos="random_free" from="np12_nt24" to="nt2_np2" begin="1500" end="1800" vehsPerHour="441" type="type1"/>
  <flow id="f_5_1" departPos="random_free" from="np13_nt23" to="nt3_np3" begin="1500" end="1800" vehsPerHour="694" type="type1"/>
  <flow id="f_5_2" departPos="random_free" from="np14_nt22" to="nt4_np4" begin="1500" end="1800" vehsPerHour="167" type="type1"/>
  <flow id="f_5_3" departPos="random_free" from="np16_nt21" to="nt5_np6" begin="1500" end="1800" vehsPerHour="216" type="type1"/>
  <flow id="f_5_4" departPos="random_free" from="np18_nt11" to="nt15_np8" begin="1500" end="1800" vehsPerHour="215" type="type1"/>
  <flow id="f_5_5" departPos="random_free" from="np20_nt1" to="nt25_np10" begin="1500" end="1800" vehsPerHour="448" type="type1"/>
  <flow id="f_5_6" departPos="random_free" from="np2_nt2" to="nt22_np14" begin="1500" end="1800" vehsPerHour="20" type="type1"/>
  <flow id="f_5_7" departPos="random_free" from="np3_nt3" to="nt23_np13" begin="1500" end="1800" vehsPerHour="501" type="type1"/>
  <flow id="f_5_8" departPos="random_free" from="np4_nt4" to="nt24_np12" begin="1500" end="1800" vehsPerHour="20" type="type1"/>
  <flow id="f_5_9" departPos="random_free" from="np6_nt5" to="nt1_np20" begin="1500" end="1800" vehsPerHour="20" type="type1"/>
  <flow id="f_5_10" departPos="random_free" from="np8_nt15" to="nt11_np18" begin="1500" end="1800" vehsPerHour="20" type="type1"/>
  <flow id="f_5_11" departPos="random_free" from="np10_nt25" to="nt21_np16" begin="1500" end="1800" vehsPerHour="49" type="type1"/>
  <flow id="f_6_0" departPos="random_free" from="np12_nt24" to="nt2_np2" begin="1800" end="2100" vehsPerHour="156" type="type1"/>
  <flow id="f_6_1" departPos="random_free" from="np13_nt23" to="nt3_np3" begin="1800" end="2100" vehsPerHour="355" type="type1"/>
  <flow id="f_6_2" departPos="random_free" from="np14_nt22" to="nt4_np4" begin="1800" end="2100" vehsPerHour="20" type="type1"/>
  <flow id="f_6_3" departPos="random_free" from="np16_nt21" to="nt5_np6" begin="1800" end="2100" vehsPerHour="45" type="type1"/>
  <flow id="f_6_4" departPos="random_free" from="np18_nt11" to="nt15_np8" begin="1800" end="2100" vehsPerHour="72" type="type1"/>
  <flow id="f_6_5" departPos="random_free" from="np20_nt1" to="nt25_np10" begin="1800" end="2100" vehsPerHour="130" type="type1"/>
  <flow id="f_6_6" departPos="random_free" from="np2_nt2" to="nt22_np14" begin="1800" end="2100" vehsPerHour="20" type="type1"/>
  <flow id="f_6_7" departPos="random_free" from="np3_nt3" to="nt23_np13" begin="1800" end="2100" vehsPerHour="1073" type="type1"/>
  <flow id="f_6_8" departPos="random_free" from="np4_nt4" to="nt24_np12" begin="1800" end="2100" vehsPerHour="32" type="type1"/>
  <flow id="f_6_9" departPos="random_free" from="np6_nt5" to="nt1_np20" begin="1800" end="2100" vehsPerHour="37" type="type1"/>
  <flow id="f_6_10" departPos="random_free" from="np8_nt15" to="nt11_np18" begin="1800" end="2100" vehsPerHour="20" type="type1"/>
  <flow id="f_6_11" departPos="random_free" from="np10_nt25" to="nt21_np16" begin="1800" end="2100" vehsPerHour="202" type="type1"/>
  <flow id="f_7_0" departPos="random_free" from="np12_nt24" to="nt2_np2" begin="2100" end="2400" vehsPerHour="33" type="type1"/>
  <flow id="f_7_1" departPos="random_free" from="np13_nt23" to="nt3_np3" begin="2100" end="2400" vehsPerHour="126" type="type1"/>
  <flow id="f_7_2" departPos="random_free" from="np14_nt22" to="nt4_np4" begin="2100" end="2400" vehsPerHour="20" type="type1"/>
  <flow id="f_7_3" departPos="random_free" from="np16_nt21" to="nt5_np6" begin="2100" end="2400" vehsPerHour="20" type="type1"/>
  <flow id="f_7_4" departPos="random_free" from="np18_nt11" to="nt15_np8" begin="2100" end="2400" vehsPerHour="20" type="type1"/>
  <flow id="f_7_5" departPos="random_free" from="np20_nt1" to="nt25_np10" begin="2100" end="2400" vehsPerHour="20" type="type1"/>
  <flow id="f_7_6" departPos="random_free" from="np2_nt2" to="nt22_np14" begin="2100" end="2400" vehsPerHour="88" type="type1"/>
  <flow id="f_7_7" departPos="random_free" from="np3_nt3" to="nt23_np13" begin="2100" end="2400" vehsPerHour="1363" type="type1"/>
  <flow id="f_7_8" departPos="random_free" from="np4_nt4" to="nt24_np12" begin="2100" end="2400" vehsPerHour="205" type="type1"/>
  <flow id="f_7_9" departPos="random_free" from="np6_nt5" to="nt1_np20" begin="2100" end="2400" vehsPerHour="213" type="type1"/>
  <flow id="f_7_10" departPos="random_free" from="np8_nt15" to="nt11_np18" begin="2100" end="2400" vehsPerHour="108" type="type1"/>
  <flow id="f_7_11" departPos="random_free" from="np10_nt25" to="nt21_np16" begin="2100" end="2400" vehsPerHour="551" type="type1"/>
  <flow id="f_8_0" departPos="random_free" from="np12_nt24" to="nt2_np2" begin="2400" end="2700" vehsPerHour="20" type="type1"/>
  <flow id="f_8_1" departPos="random_free" from="np13_nt23" to="nt3_np3" begin="2400" end="2700" vehsPerHour="30" type="type1"/>
  <flow id="f_8_2" departPos="random_free" from="np14_nt22" to="nt4_np4" begin="2400" end="2700" vehsPerHour="20" type="type1"/>
  <flow id="f_8_3" departPos="random_free" from="np16_nt21" to="nt5_np6" begin="2400" end="2700" vehsPerHour="20" type="type1"/>
  <flow id="f_8_4" departPos="random_free" from="np18_nt11" to="nt15_np8" begin="2400" end="2700" vehsPerHour="20" type="type1"/>
  <flow id="f_8_5" departPos="random_free" from="np20_nt1" to="nt25_np10" begin="2400" end="2700" vehsPerHour="20" type="type1"/>
  <flow id="f_8_6" departPos="random_free" from="np2_nt2" to="nt22_np14" begin="2400" end="2700" vehsPerHour="367" type="type1"/>
  <flow id="f_8_7" departPos="random_free" from="np3_nt3" to="nt23_np13" begin="2400" end="2700" vehsPerHour="1026" type="type1"/>
  <flow id="f_8_8" departPos="random_free" from="np4_nt4" to="nt24_np12" begin="2400" end="2700" vehsPerHour="693" type="type1"/>
  <flow id="f_8_9" departPos="random_free" from="np6_nt5" to="nt1_np20" begin="2400" end="2700" vehsPerHour="685" type="type1"/>
  <flow id="f_8_10" departPos="random_free" from="np8_nt15" to="nt11_np18" begin="2400" end="2700" vehsPerHour="498" type="type1"/>
  <flow id="f_8_11" departPos="random_free" from="np10_nt25" to="nt21_np16" begin="2400" end="2700" vehsPerHour="993" type="type1"/>
  <flow id="f_9_0" departPos="random_free" from="np12_nt24" to="nt2_np2" begin="2700" end="3000" vehsPerHour="20" type="type1"/>
  <flow id="f_9_1" departPos="random_free" from="np13_nt23" to="nt3_np3" begin="2700" end="3000" vehsPerHour="20" type="type1"/>
  <flow id="f_9_2" departPos="random_free" from="np14_nt22" to="nt4_np4" begin="2700" end="3000" vehsPerHour="20" type="type1"/>
  <flow id="f_9_3" departPos="random_free" from="np16_nt21" to="nt5_np6" begin="2700" end="3000" vehsPerHour="20" type="type1"/>
  <flow id="f_9_4" departPos="random_free" from="np18_nt11" to="nt15_np8" begin="2700" end="3000" vehsPerHour="20" type="type1"/>
  <flow id="f_9_5" departPos="random_free" from="np20_nt1" to="nt25_np10" begin="2700" end="3000" vehsPerHour="20" type="type1"/>
  <flow id="f_9_6" departPos="random_free" from="np2_nt2" to="nt22_np14" begin="2700" end="3000" vehsPerHour="812" type="type1"/>
  <flow id="f_9_7" departPos="random_free" from="np3_nt3" to="nt23_np13" begin="2700" end="3000" vehsPerHour="458" type="type1"/>
  <flow id="f_9_8" departPos="random_free" from="np4_nt4" to="nt24_np12" begin="2700" end="3000" vehsPerHour="1251" type="type1"/>
  <flow id="f_9_9" departPos="random_free" from="np6_nt5" to="nt1_np20" begin="2700" end="3000" vehsPerHour="1252" type="type1"/>
  <flow id="f_9_10" departPos="random_free" from="np8_nt15" to="nt11_np18" begin="2700" end="3000" vehsPerHour="998" type="type1"/>
  <flow id="f_9_11" departPos="random_free" from="np10_nt25" to="nt21_np16" begin="2700" end="3000" vehsPerHour="1186" type="type1"/>
</routes>
