<additional xmlns:xsi="http://www.w3.org/2001/XMLSchema-instance" xsi:noNamespaceSchemaLocation="http://sumo.dlr.de/xsd/additional_file.xsd">
    <laneAreaDetector file="e2output.xml" freq="60" friendlyPos="x" id="-E12.352_0" lane="-E12.352_0" length="39.17" pos="1.4155343563970746e-15"/>
    <laneAreaDetector file="e2output.xml" freq="60" friendlyPos="x" id="-E12.352_1" lane="-E12.352_1" length="39.17" pos="1.4155343563970746e-15"/>
    <laneAreaDetector file="e2output.xml" freq="60" friendlyPos="x" id="-E12.352_2" lane="-E12.352_2" length="39.17" pos="1.4155343563970746e-15"/>
    <laneAreaDetector file="e2output.xml" freq="60" friendlyPos="x" id="E10_0" lane="E10_0" length="50" pos="123.43"/>
    <laneAreaDetector file="e2output.xml" freq="60" friendlyPos="x" id="E10_1" lane="E10_1" length="50" pos="123.43"/>
    <laneAreaDetector file="e2output.xml" freq="60" friendlyPos="x" id="E10_2" lane="E10_2" length="50" pos="123.43"/>
    <laneAreaDetector file="e2output.xml" freq="60" friendlyPos="x" id="E10_3" lane="E10_3" length="50" pos="123.43"/>
    <laneAreaDetector file="e2output.xml" freq="60" friendlyPos="x" id="E11_0" lane="E11_0" length="50" pos="35.74"/>
    <laneAreaDetector file="e2output.xml" freq="60" friendlyPos="x" id="E11_1" lane="E11_1" length="50" pos="35.74"/>
    <laneAreaDetector file="e2output.xml" freq="60" friendlyPos="x" id="E11_2" lane="E11_2" length="50" pos="35.74"/>
    <laneAreaDetector file="e2output.xml" freq="60" friendlyPos="x" id="E11_3" lane="E11_3" length="50" pos="35.74"/>
    <laneAreaDetector file="e2output.xml" freq="60" friendlyPos="x" id="E9_0" lane="E9_0" length="50" pos="12.26"/>
    <laneAreaDetector file="e2output.xml" freq="60" friendlyPos="x" id="E9_1" lane="E9_1" length="50" pos="12.26"/>
    <laneAreaDetector file="e2output.xml" freq="60" friendlyPos="x" id="E9_2" lane="E9_2" length="50" pos="12.26"/>
    <laneAreaDetector file="e2output.xml" freq="60" friendlyPos="x" id="-E16.416_0" lane="-E16.416_0" length="50" pos="28.309999999999995"/>
    <laneAreaDetector file="e2output.xml" freq="60" friendlyPos="x" id="-E16.416_1" lane="-E16.416_1" length="50" pos="28.309999999999995"/>
    <laneAreaDetector file="e2output.xml" freq="60" friendlyPos="x" id="-E16.416_2" lane="-E16.416_2" length="50" pos="28.309999999999995"/>
    <laneAreaDetector file="e2output.xml" freq="60" friendlyPos="x" id="E13_0" lane="E13_0" length="50" pos="61.24999999999999"/>
    <laneAreaDetector file="e2output.xml" freq="60" friendlyPos="x" id="E13_1" lane="E13_1" length="50" pos="61.24999999999999"/>
    <laneAreaDetector file="e2output.xml" freq="60" friendlyPos="x" id="E13_2" lane="E13_2" length="50" pos="61.24999999999999"/>
    <laneAreaDetector file="e2output.xml" freq="60" friendlyPos="x" id="E14_0" lane="E14_0" length="50" pos="46.85999999999999"/>
    <laneAreaDetector file="e2output.xml" freq="60" friendlyPos="x" id="E14_1" lane="E14_1" length="50" pos="46.85999999999999"/>
    <laneAreaDetector file="e2output.xml" freq="60" friendlyPos="x" id="E14_2" lane="E14_2" length="50" pos="46.85999999999999"/>
    <laneAreaDetector file="e2output.xml" freq="60" friendlyPos="x" id="E15_0" lane="E15_0" length="50" pos="35.190000000000005"/>
    <laneAreaDetector file="e2output.xml" freq="60" friendlyPos="x" id="E15_1" lane="E15_1" length="50" pos="35.190000000000005"/>
    <laneAreaDetector file="e2output.xml" freq="60" friendlyPos="x" id="E15_2" lane="E15_2" length="50" pos="35.190000000000005"/>
    <laneAreaDetector file="e2output.xml" freq="60" friendlyPos="x" id="E15_3" lane="E15_3" length="50" pos="35.190000000000005"/>
    <laneAreaDetector file="e2output.xml" freq="60" friendlyPos="x" id="-E19_0" lane="-E19_0" length="50" pos="132.43"/>
    <laneAreaDetector file="e2output.xml" freq="60" friendlyPos="x" id="-E19_1" lane="-E19_1" length="50" pos="132.43"/>
    <laneAreaDetector file="e2output.xml" freq="60" friendlyPos="x" id="E17_0" lane="E17_0" length="50" pos="78.46000000000001"/>
    <laneAreaDetector file="e2output.xml" freq="60" friendlyPos="x" id="E17_1" lane="E17_1" length="50" pos="78.46000000000001"/>
    <laneAreaDetector file="e2output.xml" freq="60" friendlyPos="x" id="E18_0" lane="E18_0" length="50" pos="31.229999999999997"/>
    <laneAreaDetector file="e2output.xml" freq="60" friendlyPos="x" id="E18_1" lane="E18_1" length="50" pos="31.229999999999997"/>
    <laneAreaDetector file="e2output.xml" freq="60" friendlyPos="x" id="-E22_0" lane="-E22_0" length="50" pos="195.05"/>
    <laneAreaDetector file="e2output.xml" freq="60" friendlyPos="x" id="-E22_1" lane="-E22_1" length="50" pos="195.05"/>
    <laneAreaDetector file="e2output.xml" freq="60" friendlyPos="x" id="E20_0" lane="E20_0" length="50" pos="256.04999999999995"/>
    <laneAreaDetector file="e2output.xml" freq="60" friendlyPos="x" id="E20_1" lane="E20_1" length="50" pos="256.04999999999995"/>
    <laneAreaDetector file="e2output.xml" freq="60" friendlyPos="x" id="E21_0" lane="E21_0" length="40.089999999999996" pos="1.4155343563970746e-15"/>
    <laneAreaDetector file="e2output.xml" freq="60" friendlyPos="x" id="E21_1" lane="E21_1" length="40.089999999999996" pos="1.4155343563970746e-15"/>
    <laneAreaDetector file="e2output.xml" freq="60" friendlyPos="x" id="-E27.751_0" lane="-E27.751_0" length="50" pos="16.309999999999995"/>
    <laneAreaDetector file="e2output.xml" freq="60" friendlyPos="x" id="-E27.751_1" lane="-E27.751_1" length="50" pos="16.309999999999995"/>
    <laneAreaDetector file="e2output.xml" freq="60" friendlyPos="x" id="-E27.751_2" lane="-E27.751_2" length="50" pos="16.309999999999995"/>
    <laneAreaDetector file="e2output.xml" freq="60" friendlyPos="x" id="E24_0" lane="E24_0" length="50" pos="352.27"/>
    <laneAreaDetector file="e2output.xml" freq="60" friendlyPos="x" id="E24_1" lane="E24_1" length="50" pos="352.27"/>
    <laneAreaDetector file="e2output.xml" freq="60" friendlyPos="x" id="E24_2" lane="E24_2" length="50" pos="352.27"/>
    <laneAreaDetector file="e2output.xml" freq="60" friendlyPos="x" id="E25_0" lane="E25_0" length="50" pos="37.82"/>
    <laneAreaDetector file="e2output.xml" freq="60" friendlyPos="x" id="E25_1" lane="E25_1" length="50" pos="37.82"/>
    <laneAreaDetector file="e2output.xml" freq="60" friendlyPos="x" id="E25_2" lane="E25_2" length="50" pos="37.82"/>
    <laneAreaDetector file="e2output.xml" freq="60" friendlyPos="x" id="E26_0" lane="E26_0" length="50" pos="224.10999999999999"/>
    <laneAreaDetector file="e2output.xml" freq="60" friendlyPos="x" id="E26_1" lane="E26_1" length="50" pos="224.10999999999999"/>
    <laneAreaDetector file="e2output.xml" freq="60" friendlyPos="x" id="E26_2" lane="E26_2" length="50" pos="224.10999999999999"/>
    <laneAreaDetector file="e2output.xml" freq="60" friendlyPos="x" id="E26_3" lane="E26_3" length="50" pos="224.10999999999999"/>
    <laneAreaDetector file="e2output.xml" freq="60" friendlyPos="x" id="-E31.408_0" lane="-E31.408_0" length="50" pos="44.51"/>
    <laneAreaDetector file="e2output.xml" freq="60" friendlyPos="x" id="-E31.408_1" lane="-E31.408_1" length="50" pos="44.51"/>
    <laneAreaDetector file="e2output.xml" freq="60" friendlyPos="x" id="-E31.408_2" lane="-E31.408_2" length="50" pos="44.51"/>
    <laneAreaDetector file="e2output.xml" freq="60" friendlyPos="x" id="-E31.408_3" lane="-E31.408_3" length="50" pos="44.51"/>
    <laneAreaDetector file="e2output.xml" freq="60" friendlyPos="x" id="E28_0" lane="E28_0" length="22.11" pos="1.4155343563970746e-15"/>
    <laneAreaDetector file="e2output.xml" freq="60" friendlyPos="x" id="E28_1" lane="E28_1" length="22.11" pos="1.4155343563970746e-15"/>
    <laneAreaDetector file="e2output.xml" freq="60" friendlyPos="x" id="E28_2" lane="E28_2" length="22.11" pos="1.4155343563970746e-15"/>
    <laneAreaDetector file="e2output.xml" freq="60" friendlyPos="x" id="E28_3" lane="E28_3" length="22.11" pos="1.4155343563970746e-15"/>
    <laneAreaDetector file="e2output.xml" freq="60" friendlyPos="x" id="E30_0" lane="E30_0" length="50" pos="24.809999999999995"/>
    <laneAreaDetector file="e2output.xml" freq="60" friendlyPos="x" id="E30_1" lane="E30_1" length="50" pos="24.809999999999995"/>
    <laneAreaDetector file="e2output.xml" freq="60" friendlyPos="x" id="E30_2" lane="E30_2" length="50" pos="24.809999999999995"/>
    <laneAreaDetector file="e2output.xml" freq="60" friendlyPos="x" id="E32_0" lane="E32_0" length="30.029999999999998" pos="1.4155343563970746e-15"/>
    <laneAreaDetector file="e2output.xml" freq="60" friendlyPos="x" id="E32_1" lane="E32_1" length="30.029999999999998" pos="1.4155343563970746e-15"/>
    <laneAreaDetector file="e2output.xml" freq="60" friendlyPos="x" id="E32_2" lane="E32_2" length="30.029999999999998" pos="1.4155343563970746e-15"/>
    <laneAreaDetector file="e2output.xml" freq="60" friendlyPos="x" id="E32_3" lane="E32_3" length="30.029999999999998" pos="1.4155343563970746e-15"/>
    <laneAreaDetector file="e2output.xml" freq="60" friendlyPos="x" id="-E36.758_0" lane="-E36.758_0" length="50" pos="6.710000000000003"/>
    <laneAreaDetector file="e2output.xml" freq="60" friendlyPos="x" id="-E36.758_1" lane="-E36.758_1" length="50" pos="6.710000000000003"/>
    <laneAreaDetector file="e2output.xml" freq="60" friendlyPos="x" id="-E36.758_2" lane="-E36.758_2" length="50" pos="6.710000000000003"/>
    <laneAreaDetector file="e2output.xml" freq="60" friendlyPos="x" id="-E36.758_3" lane="-E36.758_3" length="50" pos="6.710000000000003"/>
    <laneAreaDetector file="e2output.xml" freq="60" friendlyPos="x" id="E33_0" lane="E33_0" length="50" pos="25.300000000000004"/>
    <laneAreaDetector file="e2output.xml" freq="60" friendlyPos="x" id="E33_1" lane="E33_1" length="50" pos="25.300000000000004"/>
    <laneAreaDetector file="e2output.xml" freq="60" friendlyPos="x" id="E33_2" lane="E33_2" length="50" pos="25.300000000000004"/>
    <laneAreaDetector file="e2output.xml" freq="60" friendlyPos="x" id="E33_3" lane="E33_3" length="50" pos="25.300000000000004"/>
    <laneAreaDetector file="e2output.xml" freq="60" friendlyPos="x" id="E34_0" lane="E34_0" length="50" pos="168.1"/>
    <laneAreaDetector file="e2output.xml" freq="60" friendlyPos="x" id="E34_1" lane="E34_1" length="50" pos="168.1"/>
    <laneAreaDetector file="e2output.xml" freq="60" friendlyPos="x" id="E34_2" lane="E34_2" length="50" pos="168.1"/>
    <laneAreaDetector file="e2output.xml" freq="60" friendlyPos="x" id="E34_3" lane="E34_3" length="50" pos="168.1"/>
    <laneAreaDetector file="e2output.xml" freq="60" friendlyPos="x" id="E34_4" lane="E34_4" length="50" pos="168.1"/>
    <laneAreaDetector file="e2output.xml" freq="60" friendlyPos="x" id="E35_0" lane="E35_0" length="50" pos="234.77"/>
    <laneAreaDetector file="e2output.xml" freq="60" friendlyPos="x" id="E35_1" lane="E35_1" length="50" pos="234.77"/>
    <laneAreaDetector file="e2output.xml" freq="60" friendlyPos="x" id="E35_2" lane="E35_2" length="50" pos="234.77"/>
    <laneAreaDetector file="e2output.xml" freq="60" friendlyPos="x" id="E35_3" lane="E35_3" length="50" pos="234.77"/>
    <laneAreaDetector file="e2output.xml" freq="60" friendlyPos="x" id="E35_4" lane="E35_4" length="50" pos="234.77"/>
</additional>
