<?xml version="1.0" encoding="UTF-8"?>


<routes xmlns:xsi="http://www.w3.org/2001/XMLSchema-instance" xsi:noNamespaceSchemaLocation="http://sumo.dlr.de/xsd/routes_file.xsd">
    <vehicle id="0.0" depart="0.00">
        <route edges="E3 E4 E5 E8 E8.144 E8.328 -E23"/>
    </vehicle>
    <vehicle id="1.0" depart="0.00">
        <route edges="E7 E5 E8 E8.144 E8.328 -E23"/>
    </vehicle>
    <vehicle id="10.0" depart="0.00">
        <route edges="E20 -E21 -E19 -E18 -E16 -E16.416 -E13"/>
    </vehicle>
    <vehicle id="11.0" depart="0.00">
        <route edges="E26 E27 E27.85 E30 -E28 -E29"/>
    </vehicle>
    <vehicle id="12.0" depart="0.00">
        <route edges="E24 -E26"/>
    </vehicle>
    <vehicle id="13.0" depart="0.00">
        <route edges="-E27 -E27.751 -E26"/>
    </vehicle>
    <vehicle id="2.0" depart="0.00">
        <route edges="E6 E5 E8 E8.144 E8.328 -E23"/>
    </vehicle>
    <vehicle id="3.0" depart="0.00">
        <route edges="E23 E80 E9 E12 E12.64 E14 -E13"/>
    </vehicle>
    <vehicle id="4.0" depart="0.00">
        <route edges="E37 -E23"/>
    </vehicle>
    <vehicle id="5.0" depart="0.00">
        <route edges="E11 -E10"/>
    </vehicle>
    <vehicle id="6.0" depart="0.00">
        <route edges="E10 -E11"/>
    </vehicle>
    <vehicle id="7.0" depart="0.00">
        <route edges="E15 -E13"/>
    </vehicle>
    <vehicle id="8.0" depart="0.00">
        <route edges="E13 -E15"/>
    </vehicle>
    <vehicle id="9.0" depart="0.00">
        <route edges="E17 -E18 -E16 -E16.416 -E14 -E12 -E12.352 -E9 -E8 -E8.220 -E8.144 -E80 -E5 -E7"/>
    </vehicle>
    <vehicle id="0.1" depart="2.23">
        <route edges="E3 E4 E5 E8 E8.144 E8.328 -E37"/>
    </vehicle>
    <vehicle id="11.1" depart="4.25">
        <route edges="E26 -E24"/>
    </vehicle>
    <vehicle id="0.2" depart="4.45">
        <route edges="E3 E4 E5 E8 E8.144 E8.328 -E37"/>
    </vehicle>
    <vehicle id="13.1" depart="4.62">
        <route edges="-E27 -E27.751 -E25 -E22 -E21 -E19 -E18 -E16 -E16.416 -E14 -E12 -E12.352 -E9 -E8 -E37"/>
    </vehicle>
    <vehicle id="12.1" depart="5.11">
        <route edges="E24 -E25 -E22 -E21 -E19 -E18 -E16 -E16.416 -E14 -E12 -E12.352 -E9 -E8 -E8.220 -E8.144 -E80 -E5 -E7"/>
    </vehicle>
    <vehicle id="0.3" depart="6.68">
        <route edges="E3 E4 E5 E8 E8.144 E8.328 E80 E9 E12 E12.64 E14 E16 E16.94 E18 E19 E21 -E20"/>
    </vehicle>
    <vehicle id="2.1" depart="7.32">
        <route edges="E6 E5 E8 E8.144 E8.328 -E37"/>
    </vehicle>
    <vehicle id="6.1" depart="8.26">
        <route edges="E10 -E11"/>
    </vehicle>
    <vehicle id="11.2" depart="8.49">
        <route edges="E26 -E25 -E22 -E21 -E19 -E17"/>
    </vehicle>
    <vehicle id="0.4" depart="8.91">
        <route edges="E3 E4 E5 E8 E8.144 E8.328 E80 E9 E12 E12.64 E14 E16 E16.94 E18 E19 E21 E22 E25 E27 E27.85 E30 -E32 -E48"/>
    </vehicle>
    <vehicle id="1.1" depart="9.00">
        <route edges="E7 E5 E8 E8.144 E8.328 E80 E9 -E10"/>
    </vehicle>
    <vehicle id="7.1" depart="9.00">
        <route edges="E15 E16 E16.94 E18 -E17"/>
    </vehicle>
    <vehicle id="8.1" depart="9.00">
        <route edges="E13 E16 E16.94 E18 E19 E21 -E20"/>
    </vehicle>
    <vehicle id="13.2" depart="9.23">
        <route edges="-E27 -E27.751 -E25 -E22 -E20"/>
    </vehicle>
    <vehicle id="12.2" depart="10.21">
        <route edges="E24 -E26"/>
    </vehicle>
    <vehicle id="0.5" depart="11.14">
        <route edges="E3 E4 E5 E8 E8.144 E8.328 E80 E9 E12 E12.64 E14 -E15"/>
    </vehicle>
    <vehicle id="11.3" depart="12.74">
        <route edges="E26 -E25 -E22 -E20"/>
    </vehicle>
    <vehicle id="0.6" depart="13.36">
        <route edges="E3 E4 -E7"/>
    </vehicle>
    <vehicle id="13.3" depart="13.85">
        <route edges="-E27 -E27.751 -E25 -E22 -E20"/>
    </vehicle>
    <vehicle id="2.2" depart="14.63">
        <route edges="E6 -E7"/>
    </vehicle>
    <vehicle id="12.3" depart="15.32">
        <route edges="E24 -E25 -E22 -E21 -E19 -E18 -E16 -E16.416 -E15"/>
    </vehicle>
    <vehicle id="0.7" depart="15.59">
        <route edges="E3 E4 E5 E8 E8.144 E8.328 -E23"/>
    </vehicle>
    <vehicle id="6.2" depart="16.51">
        <route edges="E10 -E9 -E8 -E8.220 -E8.144 -E80 -E5 -E4 -E3 -E0 -E0.276 -E1 -E2"/>
    </vehicle>
    <vehicle id="11.4" depart="16.98">
        <route edges="E26 -E24"/>
    </vehicle>
    <vehicle id="0.8" depart="17.82">
        <route edges="E3 E4 E5 E8 E8.144 E8.328 E80 E9 E12 E12.64 E14 E16 E16.94 E18 -E17"/>
    </vehicle>
    <vehicle id="1.2" depart="18.00">
        <route edges="E7 -E6"/>
    </vehicle>
    <vehicle id="5.1" depart="18.00">
        <route edges="E11 -E10"/>
    </vehicle>
    <vehicle id="7.2" depart="18.00">
        <route edges="E15 -E14 -E12 -E12.352 -E9 -E8 -E23"/>
    </vehicle>
    <vehicle id="8.2" depart="18.00">
        <route edges="E13 -E15"/>
    </vehicle>
    <vehicle id="13.4" depart="18.46">
        <route edges="-E27 -E27.751 -E25 -E22 -E21 -E19 -E18 -E16 -E16.416 -E14 -E12 -E12.352 -E9 -E8 -E8.220 -E8.144 -E80 -E5 -E4 -E3 -E0 -E0.276 -264341313#0 -264341313#00 264341313#0 264341313#0.680 -E49"/>
    </vehicle>
    <vehicle id="0.9" depart="20.04">
        <route edges="E3 E4 E5 E8 E8.144 E8.328 -E23"/>
    </vehicle>
    <vehicle id="12.4" depart="20.42">
        <route edges="E24 E27 E27.85 E30 E31 E31.112 E33 E36 E36.81"/>
    </vehicle>
    <vehicle id="11.5" depart="21.23">
        <route edges="E26 -E24"/>
    </vehicle>
    <vehicle id="2.3" depart="21.95">
        <route edges="E6 -E7"/>
    </vehicle>
    <vehicle id="0.10" depart="22.27">
        <route edges="E3 E4 E5 E8 E8.144 E8.328 E80 E9 E12 E12.64 E14 E16 E16.94 E18 E19 E21 E22 E25 E27 E27.85 E30 E31 E31.112 E33 -E34 -E47"/>
    </vehicle>
    <vehicle id="13.5" depart="23.08">
        <route edges="-E27 -E27.751 -E24"/>
    </vehicle>
    <vehicle id="0.11" depart="24.50">
        <route edges="E3 E4 E5 E8 E8.144 E8.328 -E23"/>
    </vehicle>
    <vehicle id="6.3" depart="24.77">
        <route edges="E10 -E11"/>
    </vehicle>
    <vehicle id="11.6" depart="25.47">
        <route edges="E26 -E24"/>
    </vehicle>
    <vehicle id="12.5" depart="25.53">
        <route edges="E24 -E25 -E22 -E21 -E19 -E17"/>
    </vehicle>
    <vehicle id="0.12" depart="26.72">
        <route edges="E3 E4 E5 E8 E8.144 E8.328 -E23"/>
    </vehicle>
    <vehicle id="1.3" depart="27.00">
        <route edges="E7 E5 E8 E8.144 E8.328 -E23"/>
    </vehicle>
    <vehicle id="7.3" depart="27.00">
        <route edges="E15 -E14 -E12 -E12.352 -E10"/>
    </vehicle>
    <vehicle id="8.3" depart="27.00">
        <route edges="E13 -E14 -E12 -E12.352 -E9 -E8 -E37"/>
    </vehicle>
    <vehicle id="13.6" depart="27.69">
        <route edges="-E27 -E27.751 -E25 -E22 -E21 -E19 -E17"/>
    </vehicle>
    <vehicle id="0.13" depart="28.95">
        <route edges="E3 E4 E5 E8 E8.144 E8.328 -E37"/>
    </vehicle>
    <vehicle id="2.4" depart="29.27">
        <route edges="E6 -E7"/>
    </vehicle>
    <vehicle id="11.7" depart="29.72">
        <route edges="E26 E27 E27.85 E30 E31 E31.112 E33 E36 E36.81"/>
    </vehicle>
    <vehicle id="12.6" depart="30.64">
        <route edges="E24 E27 E27.85 E30 -E28 -E29"/>
    </vehicle>
    <vehicle id="0.14" depart="31.18">
        <route edges="E3 E4 E5 E8 E8.144 E8.328 -E23"/>
    </vehicle>
    <vehicle id="13.7" depart="32.31">
        <route edges="-E27 -E27.751 -E26"/>
    </vehicle>
    <vehicle id="6.4" depart="33.02">
        <route edges="E10 E12 E12.64 E14 E16 E16.94 E18 E19 E21 -E20"/>
    </vehicle>
    <vehicle id="0.15" depart="33.41">
        <route edges="E3 E4 E5 E8 E8.144 E8.328 E80 E9 E12 E12.64 E14 -E15"/>
    </vehicle>
    <vehicle id="11.8" depart="33.96">
        <route edges="E26 E27 E27.85 E30 E31 E31.112 E33 -E35"/>
    </vehicle>
    <vehicle id="0.16" depart="35.63">
        <route edges="E3 E4 E5 E8 E8.144 E8.328 -E23"/>
    </vehicle>
    <vehicle id="12.7" depart="35.74">
        <route edges="E24 E27 E27.85 E30 E31 E31.112 E33 -E34 -E47"/>
    </vehicle>
    <vehicle id="1.4" depart="36.00">
        <route edges="E7 E5 E8 E8.144 E8.328 -E37"/>
    </vehicle>
    <vehicle id="10.1" depart="36.00">
        <route edges="E20 E22 E25 E27 E27.85 E30 -E32 -E48"/>
    </vehicle>
    <vehicle id="3.1" depart="36.00">
        <route edges="E23 E80 E9 E12 E12.64 E14 E16 E16.94 E18 -E17"/>
    </vehicle>
    <vehicle id="4.1" depart="36.00">
        <route edges="E37 -E23"/>
    </vehicle>
    <vehicle id="5.2" depart="36.00">
        <route edges="E11 E12 E12.64 E14 E16 E16.94 E18 -E17"/>
    </vehicle>
    <vehicle id="7.4" depart="36.00">
        <route edges="E15 E16 E16.94 E18 -E17"/>
    </vehicle>
    <vehicle id="8.4" depart="36.00">
        <route edges="E13 E16 E16.94 E18 E19 E21 -E20"/>
    </vehicle>
    <vehicle id="9.1" depart="36.00">
        <route edges="E17 -E18 -E16 -E16.416 -E14 -E12 -E12.352 -E9 -E8 -E37"/>
    </vehicle>
    <vehicle id="2.5" depart="36.59">
        <route edges="E6 -E4 -E3 842463330#1 -842463330#1 -E0 -E0.276 -264341313#0 -264341313#00 264341313#0 264341313#0.680 -E1 -E2"/>
    </vehicle>
    <vehicle id="13.8" depart="36.92">
        <route edges="-E27 -E27.751 -E25 -E22 -E21 -E19 -E18 -E16 -E16.416 -E14 -E12 -E12.352 -E11"/>
    </vehicle>
    <vehicle id="0.17" depart="37.86">
        <route edges="E3 E4 E5 E8 E8.144 E8.328 -E23"/>
    </vehicle>
    <vehicle id="11.9" depart="38.21">
        <route edges="E26 -E24"/>
    </vehicle>
    <vehicle id="0.18" depart="40.09">
        <route edges="E3 E4 E5 E8 E8.144 E8.328 E80 E9 -E11"/>
    </vehicle>
    <vehicle id="12.8" depart="40.85">
        <route edges="E24 -E26"/>
    </vehicle>
    <vehicle id="6.5" depart="41.28">
        <route edges="E10 -E9 -E8 -E37"/>
    </vehicle>
    <vehicle id="13.9" depart="41.54">
        <route edges="-E27 -E27.751 -E24"/>
    </vehicle>
    <vehicle id="0.19" depart="42.31">
        <route edges="E3 E4 E5 E8 E8.144 E8.328 E80 E9 E12 E12.64 E14 E16 E16.94 E18 E19 E21 E22 E25 E27 E27.85 E30 E31 E31.112 E33 -E35"/>
    </vehicle>
    <vehicle id="11.10" depart="42.45">
        <route edges="E26 -E25 -E22 -E20"/>
    </vehicle>
    <vehicle id="2.6" depart="43.90">
        <route edges="E6 E5 E8 E8.144 E8.328 E80 E9 E12 E12.64 E14 -E15"/>
    </vehicle>
    <vehicle id="0.20" depart="44.54">
        <route edges="E3 E4 E5 E8 E8.144 E8.328 -E37"/>
    </vehicle>
    <vehicle id="1.5" depart="45.00">
        <route edges="E7 -E6"/>
    </vehicle>
    <vehicle id="7.5" depart="45.00">
        <route edges="E15 E16 E16.94 E18 -E17"/>
    </vehicle>
    <vehicle id="8.5" depart="45.00">
        <route edges="E13 -E15"/>
    </vehicle>
    <vehicle id="12.9" depart="45.95">
        <route edges="E24 -E26"/>
    </vehicle>
    <vehicle id="13.10" depart="46.15">
        <route edges="-E27 -E27.751 -E25 -E22 -E20"/>
    </vehicle>
    <vehicle id="11.11" depart="46.70">
        <route edges="E26 -E24"/>
    </vehicle>
    <vehicle id="0.21" depart="46.77">
        <route edges="E3 E4 E5 E8 E8.144 E8.328 -E37"/>
    </vehicle>
    <vehicle id="0.22" depart="48.99">
        <route edges="E3 E4 E5 E8 E8.144 E8.328 -E23"/>
    </vehicle>
    <vehicle id="6.6" depart="49.54">
        <route edges="E10 -E11"/>
    </vehicle>
    <vehicle id="13.11" depart="50.77">
        <route edges="-E27 -E27.751 -E26"/>
    </vehicle>
    <vehicle id="11.12" depart="50.94">
        <route edges="E26 E27 E27.85 E30 -E32 -E48"/>
    </vehicle>
    <vehicle id="12.10" depart="51.06">
        <route edges="E24 E27 E27.85 E30 E31 E31.112 E33 -E34 -E47"/>
    </vehicle>
    <vehicle id="2.7" depart="51.22">
        <route edges="E6 E5 E8 E8.144 E8.328 -E37"/>
    </vehicle>
    <vehicle id="0.23" depart="51.22">
        <route edges="E3 E4 -E7"/>
    </vehicle>
    <vehicle id="0.24" depart="53.45">
        <route edges="E3 E4 E5 E8 E8.144 E8.328 -E23"/>
    </vehicle>
    <vehicle id="1.6" depart="54.00">
        <route edges="E7 -E6"/>
    </vehicle>
    <vehicle id="5.3" depart="54.00">
        <route edges="E11 E12 E12.64 E14 E16 E16.94 E18 -E17"/>
    </vehicle>
    <vehicle id="7.6" depart="54.00">
        <route edges="E15 E16 E16.94 E18 E19 E21 E22 E25 E27 E27.85 E30 -E28 -E29"/>
    </vehicle>
    <vehicle id="8.6" depart="54.00">
        <route edges="E13 -E15"/>
    </vehicle>
    <vehicle id="11.13" depart="55.19">
        <route edges="E26 -E24"/>
    </vehicle>
    <vehicle id="13.12" depart="55.38">
        <route edges="-E27 -E27.751 -E25 -E22 -E20"/>
    </vehicle>
    <vehicle id="0.25" depart="55.68">
        <route edges="E3 E4 E5 E8 E8.144 E8.328 -E37"/>
    </vehicle>
    <vehicle id="12.11" depart="56.17">
        <route edges="E24 -E26"/>
    </vehicle>
    <vehicle id="6.7" depart="57.79">
        <route edges="E10 -E11"/>
    </vehicle>
    <vehicle id="0.26" depart="57.90">
        <route edges="E3 E4 E5 E8 E8.144 E8.328 -E37"/>
    </vehicle>
    <vehicle id="2.8" depart="58.54">
        <route edges="E6 -E7"/>
    </vehicle>
    <vehicle id="11.14" depart="59.43">
        <route edges="E26 -E24"/>
    </vehicle>
    <vehicle id="13.13" depart="60.00">
        <route edges="-E27 -E27.751 -E25 -E22 -E21 -E19 -E18 -E16 -E16.416 -E14 -E12 -E12.352 -E10"/>
    </vehicle>
    <vehicle id="0.27" depart="60.13">
        <route edges="E3 E4 E5 E8 E8.144 E8.328 E80 E9 E12 E12.64 E14 E16 E16.94 E18 -E17"/>
    </vehicle>
    <vehicle id="12.12" depart="61.27">
        <route edges="E24 -E26"/>
    </vehicle>
    <vehicle id="0.28" depart="62.36">
        <route edges="E3 E4 E5 E8 E8.144 E8.328 E80 E9 E12 E12.64 E14 E16 E16.94 E18 -E17"/>
    </vehicle>
    <vehicle id="1.7" depart="63.00">
        <route edges="E7 -E6"/>
    </vehicle>
    <vehicle id="7.7" depart="63.00">
        <route edges="E15 -E13"/>
    </vehicle>
    <vehicle id="8.7" depart="63.00">
        <route edges="E13 -E14 -E12 -E12.352 -E9 -E8 -E8.220 -E8.144 -E80 -E5 -E4 -E3 842463330#1 -842463330#1 -E0 -E0.276 -E1 -E2"/>
    </vehicle>
    <vehicle id="11.15" depart="63.68">
        <route edges="E26 E27 E27.85 E30 -E28 -E29"/>
    </vehicle>
    <vehicle id="0.29" depart="64.58">
        <route edges="E3 E4 E5 E8 E8.144 E8.328 -E23"/>
    </vehicle>
    <vehicle id="13.14" depart="64.61">
        <route edges="-E27 -E27.751 -E25 -E22 -E21 -E19 -E18 -E16 -E16.416 -E15"/>
    </vehicle>
    <vehicle id="2.9" depart="65.85">
        <route edges="E6 -E7"/>
    </vehicle>
    <vehicle id="6.8" depart="66.05">
        <route edges="E10 -E11"/>
    </vehicle>
    <vehicle id="12.13" depart="66.38">
        <route edges="E24 -E25 -E22 -E21 -E19 -E18 -E16 -E16.416 -E15"/>
    </vehicle>
    <vehicle id="0.30" depart="66.81">
        <route edges="E3 E4 E5 E8 E8.144 E8.328 E80 E9 E12 E12.64 E14 E16 E16.94 E18 -E17"/>
    </vehicle>
    <vehicle id="11.16" depart="67.92">
        <route edges="E26 E27 E27.85 E30 E31 E31.112 E33 E36 E36.81"/>
    </vehicle>
    <vehicle id="0.31" depart="69.04">
        <route edges="E3 E4 -E7"/>
    </vehicle>
    <vehicle id="13.15" depart="69.23">
        <route edges="-E27 -E27.751 -E25 -E22 -E20"/>
    </vehicle>
    <vehicle id="0.32" depart="71.26">
        <route edges="E3 E4 E5 E8 E8.144 E8.328 E80 E9 E12 E12.64 E14 E16 E16.94 E18 E19 E21 -E20"/>
    </vehicle>
    <vehicle id="12.14" depart="71.48">
        <route edges="E24 -E25 -E22 -E21 -E19 -E17"/>
    </vehicle>
    <vehicle id="1.8" depart="72.00">
        <route edges="E7 -E4 -E3 -E0 -E0.276 -E1 -E2"/>
    </vehicle>
    <vehicle id="10.2" depart="72.00">
        <route edges="E20 -E21 -E19 -E17"/>
    </vehicle>
    <vehicle id="3.2" depart="72.00">
        <route edges="E23 -E37"/>
    </vehicle>
    <vehicle id="4.2" depart="72.00">
        <route edges="E37 -E8.220 -E8.144 -E80 -E5 -E4 -E3 842463330#1 -842463330#1 E3 E4 E5 E8 E8.144 E8.328 -E23"/>
    </vehicle>
    <vehicle id="5.4" depart="72.00">
        <route edges="E11 E12 E12.64 E14 E16 E16.94 E18 E19 E21 -E20"/>
    </vehicle>
    <vehicle id="7.8" depart="72.00">
        <route edges="E15 -E13"/>
    </vehicle>
    <vehicle id="8.8" depart="72.00">
        <route edges="E13 -E15"/>
    </vehicle>
    <vehicle id="9.2" depart="72.00">
        <route edges="E17 -E18 -E16 -E16.416 -E14 -E12 -E12.352 -E9 -E8 -E8.220 -E8.144 -E80 -E5 -E4 -E3 842463330#1 -842463330#1 E3 E4 E5 E8 E8.144 E8.328 E80 E9 -E11"/>
    </vehicle>
    <vehicle id="11.17" depart="72.17">
        <route edges="E26 -E25 -E22 -E20"/>
    </vehicle>
    <vehicle id="2.10" depart="73.17">
        <route edges="E6 -E7"/>
    </vehicle>
    <vehicle id="0.33" depart="73.49">
        <route edges="E3 E4 E5 E8 E8.144 E8.328 E80 E9 E12 E12.64 E14 -E13"/>
    </vehicle>
    <vehicle id="13.16" depart="73.84">
        <route edges="-E27 -E27.751 -E25 -E22 -E21 -E19 -E17"/>
    </vehicle>
    <vehicle id="6.9" depart="74.30">
        <route edges="E10 -E9 -E8 -E8.220 -E8.144 -E80 -E5 -E7"/>
    </vehicle>
    <vehicle id="0.34" depart="75.72">
        <route edges="E3 E4 E5 E8 E8.144 E8.328 -E23"/>
    </vehicle>
    <vehicle id="11.18" depart="76.41">
        <route edges="E26 -E25 -E22 -E21 -E19 -E18 -E16 -E16.416 -E14 -E12 -E12.352 -E9 -E8 -E8.220 -E8.144 -E80 -E5 -E4 -E3 -E0 -E0.276 -E49"/>
    </vehicle>
    <vehicle id="12.15" depart="76.59">
        <route edges="E24 -E25 -E22 -E21 -E19 -E17"/>
    </vehicle>
    <vehicle id="0.35" depart="77.95">
        <route edges="E3 E4 E5 E8 E8.144 E8.328 -E23"/>
    </vehicle>
    <vehicle id="13.17" depart="78.46">
        <route edges="-E27 -E27.751 -E25 -E22 -E20"/>
    </vehicle>
    <vehicle id="0.36" depart="80.17">
        <route edges="E3 E4 E5 E8 E8.144 E8.328 -E23"/>
    </vehicle>
    <vehicle id="2.11" depart="80.49">
        <route edges="E6 E5 E8 E8.144 E8.328 E80 E9 E12 E12.64 E14 E16 E16.94 E18 -E17"/>
    </vehicle>
    <vehicle id="11.19" depart="80.66">
        <route edges="E26 -E24"/>
    </vehicle>
    <vehicle id="1.9" depart="81.00">
        <route edges="E7 E5 E8 E8.144 E8.328 -E37"/>
    </vehicle>
    <vehicle id="7.9" depart="81.00">
        <route edges="E15 -E13"/>
    </vehicle>
    <vehicle id="8.9" depart="81.00">
        <route edges="E13 E16 E16.94 E18 -E17"/>
    </vehicle>
    <vehicle id="12.16" depart="81.70">
        <route edges="E24 -E26"/>
    </vehicle>
    <vehicle id="0.37" depart="82.40">
        <route edges="E3 E4 -E6"/>
    </vehicle>
    <vehicle id="6.10" depart="82.56">
        <route edges="E10 E12 E12.64 E14 E16 E16.94 E18 -E17"/>
    </vehicle>
    <vehicle id="13.18" depart="83.07">
        <route edges="-E27 -E27.751 -E25 -E22 -E20"/>
    </vehicle>
    <vehicle id="0.38" depart="84.63">
        <route edges="E3 E4 E5 E8 E8.144 E8.328 -E37"/>
    </vehicle>
    <vehicle id="11.20" depart="84.90">
        <route edges="E26 -E24"/>
    </vehicle>
    <vehicle id="12.17" depart="86.80">
        <route edges="E24 E27 E27.85 E30 E31 E31.112 E33 -E34 -E47"/>
    </vehicle>
    <vehicle id="0.39" depart="86.85">
        <route edges="E3 E4 E5 E8 E8.144 E8.328 E80 E9 -E10"/>
    </vehicle>
    <vehicle id="13.19" depart="87.69">
        <route edges="-E27 -E27.751 -E26"/>
    </vehicle>
    <vehicle id="2.12" depart="87.80">
        <route edges="E6 E5 E8 E8.144 E8.328 E80 E9 E12 E12.64 E14 E16 E16.94 E18 -E17"/>
    </vehicle>
    <vehicle id="0.40" depart="89.08">
        <route edges="E3 E4 E5 E8 E8.144 E8.328 -E23"/>
    </vehicle>
    <vehicle id="11.21" depart="89.15">
        <route edges="E26 E27 E27.85 E30 -E28 -E29"/>
    </vehicle>
    <vehicle id="1.10" depart="90.00">
        <route edges="E7 -E6"/>
    </vehicle>
    <vehicle id="5.5" depart="90.00">
        <route edges="E11 -E10"/>
    </vehicle>
    <vehicle id="7.10" depart="90.00">
        <route edges="E15 -E13"/>
    </vehicle>
    <vehicle id="8.10" depart="90.00">
        <route edges="E13 -E15"/>
    </vehicle>
    <vehicle id="6.11" depart="90.82">
        <route edges="E10 -E9 -E8 -E23"/>
    </vehicle>
    <vehicle id="0.41" depart="91.31">
        <route edges="E3 E4 E5 E8 E8.144 E8.328 E80 E9 E12 E12.64 E14 E16 E16.94 E18 E19 E21 -E20"/>
    </vehicle>
    <vehicle id="12.18" depart="91.91">
        <route edges="E24 -E25 -E22 -E20"/>
    </vehicle>
    <vehicle id="13.20" depart="92.30">
        <route edges="-E27 -E27.751 -E25 -E22 -E20"/>
    </vehicle>
    <vehicle id="11.22" depart="93.39">
        <route edges="E26 E27 E27.85 E30 E31 E31.112 E33 E36 E36.81"/>
    </vehicle>
    <vehicle id="0.42" depart="93.53">
        <route edges="E3 E4 E5 E8 E8.144 E8.328 -E37"/>
    </vehicle>
    <vehicle id="2.13" depart="95.12">
        <route edges="E6 -E7"/>
    </vehicle>
    <vehicle id="0.43" depart="95.76">
        <route edges="E3 E4 E5 E8 E8.144 E8.328 E80 E9 E12 E12.64 E14 E16 E16.94 E18 E19 E21 -E20"/>
    </vehicle>
    <vehicle id="13.21" depart="96.92">
        <route edges="-E27 -E27.751 -E24"/>
    </vehicle>
    <vehicle id="12.19" depart="97.01">
        <route edges="E24 -E26"/>
    </vehicle>
    <vehicle id="11.23" depart="97.64">
        <route edges="E26 -E25 -E22 -E20"/>
    </vehicle>
    <vehicle id="0.44" depart="97.99">
        <route edges="E3 E4 E5 E8 E8.144 E8.328 -E37"/>
    </vehicle>
    <vehicle id="1.11" depart="99.00">
        <route edges="E7 E5 E8 E8.144 E8.328 -E37"/>
    </vehicle>
    <vehicle id="7.11" depart="99.00">
        <route edges="E15 -E14 -E12 -E12.352 -E9 -E8 -E23"/>
    </vehicle>
    <vehicle id="8.11" depart="99.00">
        <route edges="E13 E16 E16.94 E18 -E17"/>
    </vehicle>
    <vehicle id="6.12" depart="99.07">
        <route edges="E10 -E11"/>
    </vehicle>
    <vehicle id="0.45" depart="100.22">
        <route edges="E3 E4 E5 E8 E8.144 E8.328 -E37"/>
    </vehicle>
    <vehicle id="13.22" depart="101.53">
        <route edges="-E27 -E27.751 -E25 -E22 -E20"/>
    </vehicle>
    <vehicle id="11.24" depart="101.88">
        <route edges="E26 E27 E27.85 E30 -E28 -E29"/>
    </vehicle>
    <vehicle id="12.20" depart="102.12">
        <route edges="E24 -E26"/>
    </vehicle>
    <vehicle id="2.14" depart="102.44">
        <route edges="E6 E5 E8 E8.144 E8.328 -E23"/>
    </vehicle>
    <vehicle id="0.46" depart="102.44">
        <route edges="E3 E4 E5 E8 E8.144 E8.328 -E37"/>
    </vehicle>
    <vehicle id="0.47" depart="104.67">
        <route edges="E3 E4 E5 E8 E8.144 E8.328 -E37"/>
    </vehicle>
    <vehicle id="11.25" depart="106.13">
        <route edges="E26 -E24"/>
    </vehicle>
    <vehicle id="13.23" depart="106.15">
        <route edges="-E27 -E27.751 -E25 -E22 -E21 -E19 -E18 -E16 -E16.416 -E13"/>
    </vehicle>
    <vehicle id="0.48" depart="106.90">
        <route edges="E3 E4 E5 E8 E8.144 E8.328 E80 E9 E12 E12.64 E14 E16 E16.94 E18 -E17"/>
    </vehicle>
    <vehicle id="12.21" depart="107.23">
        <route edges="E24 -E26"/>
    </vehicle>
    <vehicle id="6.13" depart="107.33">
        <route edges="E10 -E9 -E8 -E8.220 -E8.144 -E80 -E5 -E4 -E3 842463330#1 -842463330#1 E3 E4 E5 E8 E8.144 E8.328 E80 E9 E12 E12.64 E14 -E15"/>
    </vehicle>
    <vehicle id="1.12" depart="108.00">
        <route edges="E7 E5 E8 E8.144 E8.328 E80 E9 -E10"/>
    </vehicle>
    <vehicle id="10.3" depart="108.00">
        <route edges="E20 E22 E25 E27 E27.85 E30 E31 E31.112 E33 -E35"/>
    </vehicle>
    <vehicle id="3.3" depart="108.00">
        <route edges="E23 -E37"/>
    </vehicle>
    <vehicle id="4.3" depart="108.00">
        <route edges="E37 -E23"/>
    </vehicle>
    <vehicle id="5.6" depart="108.00">
        <route edges="E11 E12 E12.64 E14 E16 E16.94 E18 -E17"/>
    </vehicle>
    <vehicle id="7.12" depart="108.00">
        <route edges="E15 -E13"/>
    </vehicle>
    <vehicle id="8.12" depart="108.00">
        <route edges="E13 -E14 -E12 -E12.352 -E9 -E8 -E8.220 -E8.144 -E80 -E5 -E4 -E3 -E0 -E0.276 -264341313#0 -264341313#00 264341313#0 264341313#0.680 -E1 -E2"/>
    </vehicle>
    <vehicle id="9.3" depart="108.00">
        <route edges="E17 -E18 -E16 -E16.416 -E14 -E12 -E12.352 -E9 -E8 -E8.220 -E8.144 -E80 -E5 -E4 -E3 842463330#1 -842463330#1 E3 E4 E5 E8 E8.144 E8.328 E80 E9 E12 E12.64 E14 E16 E16.94 E18 -E17"/>
    </vehicle>
    <vehicle id="0.49" depart="109.12">
        <route edges="E3 E4 E5 E8 E8.144 E8.328 -E23"/>
    </vehicle>
    <vehicle id="2.15" depart="109.76">
        <route edges="E6 -E7"/>
    </vehicle>
    <vehicle id="11.26" depart="110.37">
        <route edges="E26 -E24"/>
    </vehicle>
    <vehicle id="13.24" depart="110.76">
        <route edges="-E27 -E27.751 -E25 -E22 -E20"/>
    </vehicle>
    <vehicle id="0.50" depart="111.35">
        <route edges="E3 E4 E5 E8 E8.144 E8.328 E80 E9 E12 E12.64 E14 E16 E16.94 E18 E19 E21 -E20"/>
    </vehicle>
    <vehicle id="12.22" depart="112.33">
        <route edges="E24 -E26"/>
    </vehicle>
    <vehicle id="0.51" depart="113.58">
        <route edges="E3 E4 E5 E8 E8.144 E8.328 -E37"/>
    </vehicle>
    <vehicle id="11.27" depart="114.62">
        <route edges="E26 -E25 -E22 -E20"/>
    </vehicle>
    <vehicle id="13.25" depart="115.38">
        <route edges="-E27 -E27.751 -E25 -E22 -E21 -E19 -E17"/>
    </vehicle>
    <vehicle id="6.14" depart="115.58">
        <route edges="E10 -E9 -E8 -E37"/>
    </vehicle>
    <vehicle id="0.52" depart="115.80">
        <route edges="E3 E4 E5 E8 E8.144 E8.328 E80 E9 E12 E12.64 E14 -E15"/>
    </vehicle>
    <vehicle id="1.13" depart="117.00">
        <route edges="E7 -E6"/>
    </vehicle>
    <vehicle id="7.13" depart="117.00">
        <route edges="E15 -E14 -E12 -E12.352 -E9 -E8 -E8.220 -E8.144 -E80 -E5 -E4 -E3 842463330#1 -842463330#1 -E0 -E0.276 -E1 -E2"/>
    </vehicle>
    <vehicle id="8.13" depart="117.00">
        <route edges="E13 -E15"/>
    </vehicle>
    <vehicle id="2.16" depart="117.07">
        <route edges="E6 E5 E8 E8.144 E8.328 E80 E9 E12 E12.64 E14 -E15"/>
    </vehicle>
    <vehicle id="12.23" depart="117.44">
        <route edges="E24 -E25 -E22 -E21 -E19 -E18 -E16 -E16.416 -E14 -E12 -E12.352 -E9 -E8 -E8.220 -E8.144 -E80 -E5 -E4 -E3 -E0 -E0.276 -E1 -E2"/>
    </vehicle>
    <vehicle id="0.53" depart="118.03">
        <route edges="E3 E4 -E7"/>
    </vehicle>
    <vehicle id="11.28" depart="118.86">
        <route edges="E26 -E25 -E22 -E20"/>
    </vehicle>
    <vehicle id="13.26" depart="119.99">
        <route edges="-E27 -E27.751 -E25 -E22 -E21 -E19 -E18 -E16 -E16.416 -E14 -E12 -E12.352 -E9 -E8 -E23"/>
    </vehicle>
    <vehicle id="0.54" depart="120.26">
        <route edges="E3 E4 E5 E8 E8.144 E8.328 E80 E9 E12 E12.64 E14 -E13"/>
    </vehicle>
    <vehicle id="0.55" depart="122.49">
        <route edges="E3 E4 E5 E8 E8.144 E8.328 E80 E9 -E11"/>
    </vehicle>
    <vehicle id="12.24" depart="122.54">
        <route edges="E24 -E25 -E22 -E21 -E19 -E18 -E16 -E16.416 -E14 -E12 -E12.352 -E11"/>
    </vehicle>
    <vehicle id="11.29" depart="123.11">
        <route edges="E26 -E24"/>
    </vehicle>
    <vehicle id="6.15" depart="123.84">
        <route edges="E10 -E9 -E8 -E23"/>
    </vehicle>
    <vehicle id="2.17" depart="124.39">
        <route edges="E6 -E4 -E3 -E0 -E0.276 -E1 -E2"/>
    </vehicle>
    <vehicle id="13.27" depart="124.61">
        <route edges="-E27 -E27.751 -E25 -E22 -E21 -E19 -E17"/>
    </vehicle>
    <vehicle id="0.56" depart="124.71">
        <route edges="E3 E4 E5 E8 E8.144 E8.328 -E37"/>
    </vehicle>
    <vehicle id="1.14" depart="126.00">
        <route edges="E7 -E6"/>
    </vehicle>
    <vehicle id="5.7" depart="126.00">
        <route edges="E11 -E9 -E8 -E8.220 -E8.144 -E80 -E5 -E4 -E3 -E0 -E0.276 -E49"/>
    </vehicle>
    <vehicle id="7.14" depart="126.00">
        <route edges="E15 E16 E16.94 E18 E19 E21 -E20"/>
    </vehicle>
    <vehicle id="8.14" depart="126.00">
        <route edges="E13 E16 E16.94 E18 E19 E21 -E20"/>
    </vehicle>
    <vehicle id="0.57" depart="126.94">
        <route edges="E3 E4 E5 E8 E8.144 E8.328 E80 E9 -E11"/>
    </vehicle>
    <vehicle id="11.30" depart="127.35">
        <route edges="E26 E27 E27.85 E30 -E28 -E29"/>
    </vehicle>
    <vehicle id="12.25" depart="127.65">
        <route edges="E24 -E26"/>
    </vehicle>
    <vehicle id="0.58" depart="129.17">
        <route edges="E3 E4 E5 E8 E8.144 E8.328 -E23"/>
    </vehicle>
    <vehicle id="13.28" depart="129.22">
        <route edges="-E27 -E27.751 -E24"/>
    </vehicle>
    <vehicle id="0.59" depart="131.39">
        <route edges="E3 E4 E5 E8 E8.144 E8.328 -E23"/>
    </vehicle>
    <vehicle id="11.31" depart="131.60">
        <route edges="E26 E27 E27.85 E30 E31 E31.112 E33 -E35"/>
    </vehicle>
    <vehicle id="2.18" depart="131.71">
        <route edges="E6 -E4 -E3 842463330#1 -842463330#1 E3 E4 E5 E8 E8.144 E8.328 E80 E9 E12 E12.64 E14 E16 E16.94 E18 -E17"/>
    </vehicle>
    <vehicle id="6.16" depart="132.10">
        <route edges="E10 -E9 -E8 -E37"/>
    </vehicle>
    <vehicle id="12.26" depart="132.76">
        <route edges="E24 -E26"/>
    </vehicle>
    <vehicle id="0.60" depart="133.62">
        <route edges="E3 E4 E5 E8 E8.144 E8.328 E80 E9 -E10"/>
    </vehicle>
    <vehicle id="13.29" depart="133.84">
        <route edges="-E27 -E27.751 -E24"/>
    </vehicle>
    <vehicle id="1.15" depart="135.00">
        <route edges="E7 -E6"/>
    </vehicle>
    <vehicle id="7.15" depart="135.00">
        <route edges="E15 -E13"/>
    </vehicle>
    <vehicle id="8.15" depart="135.00">
        <route edges="E13 -E14 -E12 -E12.352 -E9 -E8 -E37"/>
    </vehicle>
    <vehicle id="11.32" depart="135.84">
        <route edges="E26 -E24"/>
    </vehicle>
    <vehicle id="0.61" depart="135.85">
        <route edges="E3 E4 E5 E8 E8.144 E8.328 -E23"/>
    </vehicle>
    <vehicle id="12.27" depart="137.86">
        <route edges="E24 E27 E27.85 E30 E31 E31.112 E33 E36 E36.81"/>
    </vehicle>
    <vehicle id="0.62" depart="138.07">
        <route edges="E3 E4 -E6"/>
    </vehicle>
    <vehicle id="13.30" depart="138.45">
        <route edges="-E27 -E27.751 -E25 -E22 -E21 -E19 -E18 -E16 -E16.416 -E14 -E12 -E12.352 -E11"/>