<?xml version="1.0" encoding="UTF-8"?>


<net version="1.9" junctionCornerDetail="5" limitTurnSpeed="5.50" xmlns:xsi="http://www.w3.org/2001/XMLSchema-instance" xsi:noNamespaceSchemaLocation="http://sumo.dlr.de/xsd/net_file.xsd">

    <location netOffset="-254566.15,-3312504.49" convBoundary="0.00,0.00,15803.60,18037.49" origBoundary="120.360919,29.920924,120.870362,30.172012" projParameter="+proj=utm +zone=51 +ellps=WGS84 +datum=WGS84 +units=m +no_defs"/>

    <type id="highway.bridleway" priority="1" numLanes="1" speed="2.78" allow="pedestrian" oneway="1" width="2.00"/>
    <type id="highway.bus_guideway" priority="1" numLanes="1" speed="27.78" allow="bus" oneway="1"/>
    <type id="highway.cycleway" priority="1" numLanes="1" speed="8.33" allow="bicycle" oneway="0" width="1.00"/>
    <type id="highway.footway" priority="1" numLanes="1" speed="2.78" allow="pedestrian" oneway="1" width="2.00"/>
    <type id="highway.ford" priority="1" numLanes="1" speed="2.78" allow="army" oneway="0"/>
    <type id="highway.living_street" priority="2" numLanes="1" speed="2.78" disallow="tram rail_urban rail rail_electric rail_fast ship" oneway="0"/>
    <type id="highway.motorway" priority="14" numLanes="2" speed="39.44" allow="private emergency authority army vip passenger hov taxi bus coach delivery truck trailer motorcycle evehicle custom1 custom2" oneway="1"/>
    <type id="highway.motorway_link" priority="9" numLanes="1" speed="22.22" allow="private emergency authority army vip passenger hov taxi bus coach delivery truck trailer motorcycle evehicle custom1 custom2" oneway="1"/>
    <type id="highway.path" priority="1" numLanes="1" speed="2.78" allow="pedestrian bicycle" oneway="0" width="2.00"/>
    <type id="highway.pedestrian" priority="1" numLanes="1" speed="2.78" allow="pedestrian" oneway="1" width="2.00"/>
    <type id="highway.primary" priority="12" numLanes="2" speed="27.78" disallow="tram rail_urban rail rail_electric rail_fast ship" oneway="0"/>
    <type id="highway.primary_link" priority="7" numLanes="1" speed="22.22" disallow="tram rail_urban rail rail_electric rail_fast ship" oneway="0"/>
    <type id="highway.raceway" priority="15" numLanes="2" speed="83.33" allow="vip" oneway="0"/>
    <type id="highway.residential" priority="3" numLanes="1" speed="13.89" disallow="tram rail_urban rail rail_electric rail_fast ship" oneway="0"/>
    <type id="highway.secondary" priority="11" numLanes="1" speed="27.78" disallow="tram rail_urban rail rail_electric rail_fast ship" oneway="0"/>
    <type id="highway.secondary_link" priority="6" numLanes="1" speed="22.22" disallow="tram rail_urban rail rail_electric rail_fast ship" oneway="0"/>
    <type id="highway.service" priority="1" numLanes="1" speed="5.56" allow="pedestrian delivery bicycle" oneway="0"/>
    <type id="highway.stairs" priority="1" numLanes="1" speed="1.39" allow="pedestrian" oneway="1" width="2.00"/>
    <type id="highway.step" priority="1" numLanes="1" speed="1.39" allow="pedestrian" oneway="1" width="2.00"/>
    <type id="highway.steps" priority="1" numLanes="1" speed="1.39" allow="pedestrian" oneway="1" width="2.00"/>
    <type id="highway.tertiary" priority="10" numLanes="1" speed="22.22" disallow="tram rail_urban rail rail_electric rail_fast ship" oneway="0"/>
    <type id="highway.tertiary_link" priority="5" numLanes="1" speed="22.22" disallow="tram rail_urban rail rail_electric rail_fast ship" oneway="0"/>
    <type id="highway.track" priority="1" numLanes="1" speed="5.56" allow="pedestrian motorcycle moped bicycle" oneway="0"/>
    <type id="highway.trunk" priority="13" numLanes="2" speed="27.78" disallow="pedestrian bicycle tram rail_urban rail rail_electric rail_fast ship" oneway="0"/>
    <type id="highway.trunk_link" priority="8" numLanes="1" speed="22.22" disallow="pedestrian bicycle tram rail_urban rail rail_electric rail_fast ship" oneway="0"/>
    <type id="highway.unclassified" priority="4" numLanes="1" speed="13.89" disallow="tram rail_urban rail rail_electric rail_fast ship" oneway="0"/>
    <type id="highway.unsurfaced" priority="1" numLanes="1" speed="8.33" disallow="tram rail_urban rail rail_electric rail_fast ship" oneway="0"/>
    <type id="railway.highspeed" priority="21" numLanes="1" speed="69.44" allow="rail_fast" oneway="1"/>
    <type id="railway.light_rail" priority="19" numLanes="1" speed="27.78" allow="rail_urban" oneway="1"/>
    <type id="railway.preserved" priority="16" numLanes="1" speed="27.78" allow="rail" oneway="1"/>
    <type id="railway.rail" priority="20" numLanes="1" speed="44.44" allow="rail" oneway="1"/>
    <type id="railway.subway" priority="18" numLanes="1" speed="27.78" allow="rail_urban" oneway="1"/>
    <type id="railway.tram" priority="17" numLanes="1" speed="13.89" allow="tram" oneway="1"/>

    <edge id=":3387736666_0" function="internal">
        <lane id=":3387736666_0_0" index="0" disallow="pedestrian tram rail_urban rail rail_electric rail_fast ship" speed="7.18" length="11.55" shape="8890.25,13149.68 8889.60,13146.26 8888.22,13143.92 8886.10,13142.65 8883.24,13142.45"/>
    </edge>
    <edge id=":3387736666_1" function="internal">
        <lane id=":3387736666_1_0" index="0" disallow="pedestrian tram rail_urban rail rail_electric rail_fast ship" speed="13.89" length="26.77" shape="8890.25,13149.68 8889.66,13142.75 8888.87,13136.49 8887.80,13130.28 8886.40,13123.46"/>
        <lane id=":3387736666_1_1" index="1" disallow="pedestrian tram rail_urban rail rail_electric rail_fast ship" speed="13.89" length="26.77" shape="8893.44,13149.47 8892.84,13142.46 8892.02,13136.04 8890.94,13129.67 8889.52,13122.78"/>
    </edge>
    <edge id=":3387736666_3" function="internal">
        <lane id=":3387736666_3_0" index="0" disallow="pedestrian tram rail_urban rail rail_electric rail_fast ship" speed="11.34" length="6.38" shape="8893.44,13149.47 8894.10,13143.12"/>
    </edge>
    <edge id=":3387736666_18" function="internal">
        <lane id=":3387736666_18_0" index="0" disallow="pedestrian tram rail_urban rail rail_electric rail_fast ship" speed="11.34" length="20.60" shape="8894.10,13143.12 8894.12,13143.00 8897.13,13137.90 8902.49,13134.19 8910.18,13131.86"/>
    </edge>
    <edge id=":3387736666_4" function="internal">
        <lane id=":3387736666_4_0" index="0" disallow="pedestrian tram rail_urban rail rail_electric rail_fast ship" speed="8.70" length="15.47" shape="8911.93,13141.30 8906.50,13142.65 8902.67,13144.39 8900.44,13146.51 8899.82,13149.03"/>
        <lane id=":3387736666_4_1" index="1" disallow="pedestrian tram rail_urban rail rail_electric rail_fast ship" speed="9.85" length="20.11" shape="8911.35,13138.15 8904.70,13139.91 8900.03,13142.34 8897.34,13145.46 8896.63,13149.25"/>
    </edge>
    <edge id=":3387736666_6" function="internal">
        <lane id=":3387736666_6_0" index="0" disallow="pedestrian tram rail_urban rail rail_electric rail_fast ship" speed="13.89" length="28.31" shape="8911.35,13138.15 8883.24,13142.45"/>
        <lane id=":3387736666_6_1" index="1" disallow="pedestrian tram rail_urban rail rail_electric rail_fast ship" speed="13.89" length="28.31" shape="8910.77,13135.01 8882.90,13139.27"/>
    </edge>
    <edge id=":3387736666_8" function="internal">
        <lane id=":3387736666_8_0" index="0" disallow="pedestrian tram rail_urban rail rail_electric rail_fast ship" speed="11.13" length="27.73" shape="8910.77,13135.01 8902.75,13135.48 8896.53,13133.60 8892.12,13129.37 8889.52,13122.78"/>
    </edge>
    <edge id=":3387736666_9" function="internal">
        <lane id=":3387736666_9_0" index="0" disallow="pedestrian tram rail_urban rail rail_electric rail_fast ship" speed="7.71" length="12.76" shape="8902.03,13120.04 8903.29,13124.22 8904.98,13127.05 8907.08,13128.55 8909.60,13128.71"/>
    </edge>
    <edge id=":3387736666_10" function="internal">
        <lane id=":3387736666_10_0" index="0" disallow="pedestrian tram rail_urban rail rail_electric rail_fast ship" speed="13.89" length="28.18" shape="8898.90,13120.73 8900.22,13129.58 8900.24,13136.32 8899.82,13142.34 8899.82,13149.03"/>
        <lane id=":3387736666_10_1" index="1" disallow="pedestrian tram rail_urban rail rail_electric rail_fast ship" speed="13.89" length="28.18" shape="8895.78,13121.41 8897.07,13130.10 8897.06,13136.69 8896.63,13142.60 8896.63,13149.25"/>
    </edge>
    <edge id=":3387736666_12" function="internal">
        <lane id=":3387736666_12_0" index="0" disallow="pedestrian tram rail_urban rail rail_electric rail_fast ship" speed="9.68" length="6.70" shape="8892.65,13122.09 8893.30,13128.76"/>
    </edge>
    <edge id=":3387736666_19" function="internal">
        <lane id=":3387736666_19_0" index="0" disallow="pedestrian tram rail_urban rail rail_electric rail_fast ship" speed="9.68" length="16.34" shape="8893.30,13128.76 8893.33,13129.08 8891.93,13134.27 8888.46,13137.67 8882.90,13139.27"/>
    </edge>
    <edge id=":3387736666_13" function="internal">
        <lane id=":3387736666_13_0" index="0" disallow="pedestrian tram rail_urban rail rail_electric rail_fast ship" speed="6.28" length="9.04" shape="8881.88,13129.73 8884.32,13129.10 8885.88,13127.85 8886.58,13125.97 8886.40,13123.46"/>
    </edge>
    <edge id=":3387736666_14" function="internal">
        <lane id=":3387736666_14_0" index="0" disallow="pedestrian tram rail_urban rail rail_electric rail_fast ship" speed="13.89" length="27.86" shape="8881.88,13129.73 8909.60,13128.71"/>
        <lane id=":3387736666_14_1" index="1" disallow="pedestrian tram rail_urban rail rail_electric rail_fast ship" speed="13.89" length="27.86" shape="8882.22,13132.91 8910.18,13131.86"/>
    </edge>
    <edge id=":3387736666_16" function="internal">
        <lane id=":3387736666_16_0" index="0" disallow="pedestrian tram rail_urban rail rail_electric rail_fast ship" speed="10.79" length="27.44" shape="8882.22,13132.91 8889.46,13133.26 8894.81,13136.06 8898.26,13141.32 8899.82,13149.03"/>
        <lane id=":3387736666_16_1" index="1" disallow="pedestrian tram rail_urban rail rail_electric rail_fast ship" speed="9.74" length="22.14" shape="8882.56,13136.09 8888.34,13136.39 8892.61,13138.68 8895.38,13142.97 8896.63,13149.25"/>
    </edge>
    <edge id=":4145409521_0" function="internal">
        <lane id=":4145409521_0_0" index="0" disallow="pedestrian tram rail_urban rail rail_electric rail_fast ship" speed="7.35" length="11.77" shape="7992.45,13319.54 7991.30,13315.82 7989.69,13313.34 7987.64,13312.08 7985.13,13312.04"/>
    </edge>
    <edge id=":4145409521_1" function="internal">
        <lane id=":4145409521_1_0" index="0" disallow="pedestrian tram rail_urban rail rail_electric rail_fast ship" speed="18.05" length="27.54" shape="7992.45,13319.54 7991.10,13310.98 7990.74,13304.51 7990.45,13298.75 7989.31,13292.29"/>
        <lane id=":4145409521_1_1" index="1" disallow="pedestrian tram rail_urban rail rail_electric rail_fast ship" speed="18.05" length="27.54" shape="7995.58,13318.87 7994.22,13310.27 7993.85,13303.76 7993.56,13297.96 7992.41,13291.49"/>
    </edge>
    <edge id=":4145409521_3" function="internal">
        <lane id=":4145409521_3_0" index="0" disallow="pedestrian tram rail_urban rail rail_electric rail_fast ship" speed="10.36" length="4.38" shape="7998.71,13318.20 7998.41,13313.83"/>
    </edge>
    <edge id=":4145409521_17" function="internal">
        <lane id=":4145409521_17_0" index="0" disallow="pedestrian tram rail_urban rail rail_electric rail_fast ship" speed="10.36" length="20.16" shape="7998.41,13313.83 7998.25,13311.49 8000.05,13306.25 8004.11,13302.48 8010.42,13300.17"/>
    </edge>
    <edge id=":4145409521_4" function="internal">
        <lane id=":4145409521_4_0" index="0" disallow="pedestrian tram rail_urban rail rail_electric rail_fast ship" speed="6.50" length="9.03" shape="8012.41,13309.56 8010.08,13310.41 8008.59,13311.80 8007.93,13313.73 8008.09,13316.20"/>
    </edge>
    <edge id=":4145409521_5" function="internal">
        <lane id=":4145409521_5_0" index="0" disallow="pedestrian tram rail_urban rail rail_electric rail_fast ship" speed="13.89" length="27.44" shape="8012.41,13309.56 8003.87,13310.85 7997.41,13311.09 7991.63,13311.18 7985.13,13312.04"/>
        <lane id=":4145409521_5_1" index="1" disallow="pedestrian tram rail_urban rail rail_electric rail_fast ship" speed="13.89" length="27.44" shape="8011.75,13306.43 8003.21,13307.72 7996.75,13307.96 7990.98,13308.05 7984.47,13308.91"/>
    </edge>
    <edge id=":4145409521_7" function="internal">
        <lane id=":4145409521_7_0" index="0" disallow="pedestrian tram rail_urban rail rail_electric rail_fast ship" speed="10.62" length="24.95" shape="8011.08,13303.30 8004.36,13303.74 7999.01,13301.91 7995.02,13297.83 7992.41,13291.49"/>
    </edge>
    <edge id=":4145409521_8" function="internal">
        <lane id=":4145409521_8_0" index="0" disallow="pedestrian tram rail_urban rail rail_electric rail_fast ship" speed="7.69" length="12.59" shape="8001.71,13289.10 8003.10,13293.02 8004.90,13295.65 8007.12,13296.99 8009.76,13297.04"/>
    </edge>
    <edge id=":4145409521_9" function="internal">
        <lane id=":4145409521_9_0" index="0" disallow="pedestrian tram rail_urban rail rail_electric rail_fast ship" speed="18.05" length="27.71" shape="8001.71,13289.10 8008.09,13316.20"/>
        <lane id=":4145409521_9_1" index="1" disallow="pedestrian tram rail_urban rail rail_electric rail_fast ship" speed="18.05" length="27.71" shape="7998.61,13289.89 8004.96,13316.87"/>
        <lane id=":4145409521_9_2" index="2" disallow="pedestrian tram rail_urban rail rail_electric rail_fast ship" speed="18.05" length="27.71" shape="7995.51,13290.69 8001.84,13317.53"/>
    </edge>
    <edge id=":4145409521_12" function="internal">
        <lane id=":4145409521_12_0" index="0" disallow="pedestrian tram rail_urban rail rail_electric rail_fast ship" speed="10.20" length="7.35" shape="7995.51,13290.69 7996.28,13297.49 7996.13,13297.98"/>
    </edge>
    <edge id=":4145409521_18" function="internal">
        <lane id=":4145409521_18_0" index="0" disallow="pedestrian tram rail_urban rail rail_electric rail_fast ship" speed="10.20" length="17.19" shape="7996.13,13297.98 7994.69,13302.79 7990.76,13306.59 7984.47,13308.91"/>
    </edge>
    <edge id=":4145409521_13" function="internal">
        <lane id=":4145409521_13_0" index="0" disallow="pedestrian tram rail_urban rail rail_electric rail_fast ship" speed="7.09" length="11.31" shape="7982.50,13299.51 7986.01,13298.41 7988.32,13296.84 7989.42,13294.80 7989.31,13292.29"/>
    </edge>
    <edge id=":4145409521_14" function="internal">
        <lane id=":4145409521_14_0" index="0" disallow="pedestrian tram rail_urban rail rail_electric rail_fast ship" speed="13.89" length="27.42" shape="7982.50,13299.51 7991.03,13298.23 7997.48,13298.00 8003.26,13297.90 8009.76,13297.04"/>
        <lane id=":4145409521_14_1" index="1" disallow="pedestrian tram rail_urban rail rail_electric rail_fast ship" speed="13.89" length="27.42" shape="7983.15,13302.64 7991.69,13301.36 7998.14,13301.13 8003.92,13301.03 8010.42,13300.17"/>
    </edge>
    <edge id=":4145409521_16" function="internal">
        <lane id=":4145409521_16_0" index="0" disallow="pedestrian tram rail_urban rail rail_electric rail_fast ship" speed="10.38" length="24.52" shape="7983.81,13305.78 7990.51,13305.34 7995.74,13307.16 7999.52,13311.22 8001.84,13317.53"/>
    </edge>
    <edge id=":7779812957_0" function="internal">
        <lane id=":7779812957_0_0" index="0" disallow="pedestrian tram rail_urban rail rail_electric rail_fast ship" speed="13.89" length="7.91" shape="7932.33,13323.13 7924.64,13324.82"/>
        <lane id=":7779812957_0_1" index="1" disallow="pedestrian tram rail_urban rail rail_electric rail_fast ship" speed="13.89" length="7.91" shape="7931.67,13320.00 7923.92,13321.70"/>
    </edge>
    <edge id=":7779812957_2" function="internal">
        <lane id=":7779812957_2_0" index="0" disallow="pedestrian tram rail_urban rail rail_electric rail_fast ship" speed="13.89" length="8.93" shape="7922.49,13315.46 7924.81,13314.42 7926.09,13313.00 7927.38,13311.60 7929.70,13310.60"/>
        <lane id=":7779812957_2_1" index="1" disallow="pedestrian tram rail_urban rail rail_electric rail_fast ship" speed="13.89" length="8.93" shape="7922.49,13315.46 7930.36,13313.73"/>
        <lane id=":7779812957_2_2" index="2" disallow="pedestrian tram rail_urban rail rail_electric rail_fast ship" speed="13.89" length="8.93" shape="7923.21,13318.58 7925.63,13317.00 7926.45,13314.56 7927.27,13312.13 7929.70,13310.60"/>
        <lane id=":7779812957_2_3" index="3" disallow="pedestrian tram rail_urban rail rail_electric rail_fast ship" speed="13.89" length="8.93" shape="7923.21,13318.58 7925.51,13317.54 7926.78,13316.13 7928.05,13314.73 7930.36,13313.73"/>
        <lane id=":7779812957_2_4" index="4" disallow="pedestrian tram rail_urban rail rail_electric rail_fast ship" speed="13.89" length="8.93" shape="7923.21,13318.58 7931.02,13316.86"/>
    </edge>
    <edge id=":7859284664_0" function="internal">
        <lane id=":7859284664_0_0" index="0" disallow="pedestrian tram rail_urban rail rail_electric rail_fast ship" speed="3.65" length="4.67" shape="8260.41,12670.54 8261.08,12669.27 8261.84,12668.79 8262.67,12669.10 8263.59,12670.22"/>
    </edge>
    <edge id=":7859284665_0" function="internal">
        <lane id=":7859284665_0_0" index="0" disallow="pedestrian tram rail_urban rail rail_electric rail_fast ship" speed="13.89" length="20.73" shape="8332.42,13240.92 8312.10,13244.92"/>
        <lane id=":7859284665_0_1" index="1" disallow="pedestrian tram rail_urban rail rail_electric rail_fast ship" speed="13.89" length="20.73" shape="8331.82,13237.78 8311.46,13241.79"/>
    </edge>
    <edge id=":7859284665_2" function="internal">
        <lane id=":7859284665_2_0" index="0" disallow="pedestrian tram rail_urban rail rail_electric rail_fast ship" speed="9.07" length="4.91" shape="8331.82,13237.78 8326.92,13238.02"/>
    </edge>
    <edge id=":7859284665_8" function="internal">
        <lane id=":7859284665_8_0" index="0" disallow="pedestrian tram rail_urban rail rail_electric rail_fast ship" speed="9.07" length="14.81" shape="8326.92,13238.02 8326.28,13238.05 8322.14,13236.49 8319.40,13233.10 8318.06,13227.88"/>
    </edge>
    <edge id=":7859284665_3" function="internal">
        <lane id=":7859284665_3_0" index="0" disallow="pedestrian tram rail_urban rail rail_electric rail_fast ship" speed="6.50" length="9.59" shape="8324.32,13226.16 8324.96,13228.89 8326.23,13230.69 8328.11,13231.56 8330.62,13231.49"/>
    </edge>
    <edge id=":7859284665_4" function="internal">
        <lane id=":7859284665_4_0" index="0" disallow="pedestrian tram rail_urban rail rail_electric rail_fast ship" speed="9.70" length="19.75" shape="8321.19,13227.02 8321.07,13232.64 8319.41,13236.97 8316.20,13240.02 8311.46,13241.79"/>
    </edge>
    <edge id=":7859284665_5" function="internal">
        <lane id=":7859284665_5_0" index="0" disallow="pedestrian tram rail_urban rail rail_electric rail_fast ship" speed="6.81" length="9.25" shape="8310.18,13235.52 8312.48,13234.68 8314.04,13233.28 8314.86,13231.30 8314.93,13228.74"/>
    </edge>
    <edge id=":7859284665_6" function="internal">
        <lane id=":7859284665_6_0" index="0" disallow="pedestrian tram rail_urban rail rail_electric rail_fast ship" speed="13.89" length="20.81" shape="8310.18,13235.52 8330.62,13231.49"/>
        <lane id=":7859284665_6_1" index="1" disallow="pedestrian tram rail_urban rail rail_electric rail_fast ship" speed="13.89" length="20.81" shape="8310.82,13238.65 8331.22,13234.63"/>
    </edge>
    <edge id=":9494584592_0" function="internal">
        <lane id=":9494584592_0_0" index="0" disallow="pedestrian tram rail_urban rail rail_electric rail_fast ship" speed="3.65" length="4.67" shape="7831.50,12842.42 7831.71,12841.00 7832.27,12840.29 7833.16,12840.31 7834.40,12841.06"/>
    </edge>
    <edge id=":J0_0" function="internal">
        <lane id=":J0_0_0" index="0" disallow="pedestrian tram rail_urban rail rail_electric rail_fast ship" speed="13.89" length="7.33" shape="8808.64,13150.43 8801.52,13151.48"/>
        <lane id=":J0_0_1" index="1" disallow="pedestrian tram rail_urban rail rail_electric rail_fast ship" speed="13.89" length="7.33" shape="8808.30,13147.24 8800.92,13148.34"/>
    </edge>
    <edge id=":J0_2" function="internal">
        <lane id=":J0_2_0" index="0" disallow="pedestrian tram rail_urban rail rail_electric rail_fast ship" speed="13.89" length="8.83" shape="8799.72,13142.05 8802.10,13141.09 8803.48,13139.74 8804.87,13138.46 8807.28,13137.70"/>
        <lane id=":J0_2_1" index="1" disallow="pedestrian tram rail_urban rail rail_electric rail_fast ship" speed="13.89" length="8.83" shape="8799.72,13142.05 8807.62,13140.88"/>
        <lane id=":J0_2_2" index="2" disallow="pedestrian tram rail_urban rail rail_electric rail_fast ship" speed="13.89" length="8.83" shape="8800.32,13145.19 8802.81,13143.69 8803.78,13141.29 8804.75,13138.96 8807.28,13137.70"/>
        <lane id=":J0_2_3" index="3" disallow="pedestrian tram rail_urban rail rail_electric rail_fast ship" speed="13.89" length="8.83" shape="8800.32,13145.19 8802.63,13144.25 8803.95,13142.91 8805.29,13141.63 8807.62,13140.88"/>
        <lane id=":J0_2_4" index="4" disallow="pedestrian tram rail_urban rail rail_electric rail_fast ship" speed="13.89" length="8.83" shape="8800.32,13145.19 8807.96,13144.06"/>
    </edge>
    <edge id=":J1_0" function="internal">
        <lane id=":J1_0_0" index="0" disallow="pedestrian tram rail_urban rail rail_electric rail_fast ship" speed="11.95" length="8.85" shape="8982.69,13124.98 8980.38,13125.89 8979.07,13127.23 8977.77,13128.59 8975.46,13129.52"/>
        <lane id=":J1_0_1" index="1" disallow="pedestrian tram rail_urban rail rail_electric rail_fast ship" speed="11.95" length="8.85" shape="8982.69,13124.98 8974.88,13126.38"/>
        <lane id=":J1_0_2" index="2" disallow="pedestrian tram rail_urban rail rail_electric rail_fast ship" speed="11.95" length="8.85" shape="8982.15,13121.83 8979.69,13123.26 8978.80,13125.65 8977.91,13128.05 8975.46,13129.52"/>
        <lane id=":J1_0_3" index="3" disallow="pedestrian tram rail_urban rail rail_electric rail_fast ship" speed="11.95" length="8.85" shape="8982.15,13121.83 8979.82,13122.74 8978.51,13124.08 8977.20,13125.44 8974.88,13126.38"/>
        <lane id=":J1_0_4" index="4" disallow="pedestrian tram rail_urban rail rail_electric rail_fast ship" speed="11.95" length="8.85" shape="8982.15,13121.83 8974.29,13123.23"/>
    </edge>
    <edge id=":J1_5" function="internal">
        <lane id=":J1_5_0" index="0" disallow="pedestrian tram rail_urban rail rail_electric rail_fast ship" speed="11.95" length="8.04" shape="8973.13,13116.94 8981.07,13115.52"/>
        <lane id=":J1_5_1" index="1" disallow="pedestrian tram rail_urban rail rail_electric rail_fast ship" speed="11.95" length="8.04" shape="8973.71,13120.09 8981.61,13118.68"/>
    </edge>
    <edge id=":J10_0" function="internal">
        <lane id=":J10_0_0" index="0" disallow="pedestrian tram rail_urban rail rail_electric rail_fast ship" speed="10.00" length="8.08" shape="10553.38,13064.35 10545.34,13063.18"/>
        <lane id=":J10_0_1" index="1" disallow="pedestrian tram rail_urban rail rail_electric rail_fast ship" speed="10.00" length="8.08" shape="10553.79,13061.17 10545.85,13060.02"/>
    </edge>
    <edge id=":J10_2" function="internal">
        <lane id=":J10_2_0" index="0" disallow="pedestrian tram rail_urban rail rail_electric rail_fast ship" speed="10.00" length="8.75" shape="10546.86,13053.70 10549.30,13053.59 10550.93,13052.73 10552.56,13051.84 10555.01,13051.65"/>
        <lane id=":J10_2_1" index="1" disallow="pedestrian tram rail_urban rail rail_electric rail_fast ship" speed="10.00" length="8.75" shape="10546.86,13053.70 10554.60,13054.83"/>
        <lane id=":J10_2_2" index="2" disallow="pedestrian tram rail_urban rail rail_electric rail_fast ship" speed="10.00" length="8.75" shape="10546.36,13056.86 10549.11,13056.30 10550.68,13054.32 10552.25,13052.31 10555.01,13051.65"/>
        <lane id=":J10_2_3" index="3" disallow="pedestrian tram rail_urban rail rail_electric rail_fast ship" speed="10.00" length="8.75" shape="10546.36,13056.86 10548.82,13056.75 10550.47,13055.90 10552.13,13055.01 10554.60,13054.83"/>
        <lane id=":J10_2_4" index="4" disallow="pedestrian tram rail_urban rail rail_electric rail_fast ship" speed="10.00" length="8.75" shape="10546.36,13056.86 10554.20,13058.00"/>
    </edge>
    <edge id=":J12_0" function="internal">
        <lane id=":J12_0_0" index="0" disallow="pedestrian tram rail_urban rail rail_electric rail_fast ship" speed="6.32" length="9.04" shape="10679.79,13083.43 10677.29,13083.53 10675.49,13084.43 10674.39,13086.12 10674.01,13088.60"/>
    </edge>
    <edge id=":J12_1" function="internal">
        <lane id=":J12_1_0" index="0" disallow="pedestrian tram rail_urban rail rail_electric rail_fast ship" speed="11.95" length="30.98" shape="10679.79,13083.43 10670.17,13081.92 10662.79,13079.98 10656.36,13078.09 10649.55,13076.71"/>
        <lane id=":J12_1_1" index="1" disallow="pedestrian tram rail_urban rail rail_electric rail_fast ship" speed="11.95" length="30.98" shape="10680.11,13080.24 10670.50,13078.74 10663.16,13076.80 10656.76,13074.91 10649.96,13073.54"/>
    </edge>
    <edge id=":J12_3" function="internal">
        <lane id=":J12_3_0" index="0" disallow="pedestrian tram rail_urban rail rail_electric rail_fast ship" speed="11.37" length="27.02" shape="10680.44,13077.06 10673.49,13075.33 10668.48,13071.72 10665.41,13066.26 10664.29,13058.92"/>
    </edge>
    <edge id=":J12_4" function="internal">
        <lane id=":J12_4_0" index="0" disallow="pedestrian tram rail_urban rail rail_electric rail_fast ship" speed="8.68" length="15.34" shape="10673.89,13058.74 10674.41,13063.71 10675.79,13067.35 10678.01,13069.68 10681.08,13070.69"/>
    </edge>
    <edge id=":J12_5" function="internal">
        <lane id=":J12_5_0" index="0" disallow="pedestrian tram rail_urban rail rail_electric rail_fast ship" speed="10.00" length="29.81" shape="10673.89,13058.74 10674.01,13088.60"/>
        <lane id=":J12_5_1" index="1" disallow="pedestrian tram rail_urban rail rail_electric rail_fast ship" speed="10.00" length="29.81" shape="10670.69,13058.80 10670.81,13088.56"/>
    </edge>
    <edge id=":J12_7" function="internal">
        <lane id=":J12_7_0" index="0" disallow="pedestrian tram rail_urban rail rail_electric rail_fast ship" speed="10.00" length="27.03" shape="10667.49,13058.86 10666.51,13066.14 10663.26,13071.02 10657.75,13073.48 10649.96,13073.54"/>
    </edge>
    <edge id=":J12_8" function="internal">
        <lane id=":J12_8_0" index="0" disallow="pedestrian tram rail_urban rail rail_electric rail_fast ship" speed="6.45" length="9.85" shape="10651.18,13064.02 10654.16,13064.03 10656.27,13063.21 10657.51,13061.55 10657.89,13059.04"/>
    </edge>
    <edge id=":J12_9" function="internal">
        <lane id=":J12_9_0" index="0" disallow="pedestrian tram rail_urban rail rail_electric rail_fast ship" speed="11.95" length="30.71" shape="10651.18,13064.02 10660.73,13065.73 10667.98,13067.69 10674.30,13069.49 10681.08,13070.69"/>
        <lane id=":J12_9_1" index="1" disallow="pedestrian tram rail_urban rail rail_electric rail_fast ship" speed="11.95" length="30.71" shape="10650.78,13067.19 10660.34,13068.90 10667.61,13070.87 10673.97,13072.68 10680.76,13073.88"/>
    </edge>
    <edge id=":J12_11" function="internal">
        <lane id=":J12_11_0" index="0" disallow="pedestrian tram rail_urban rail rail_electric rail_fast ship" speed="10.00" length="27.86" shape="10650.37,13070.37 10657.98,13072.34 10663.39,13076.03 10666.60,13081.42 10667.61,13088.53"/>
    </edge>
    <edge id=":J12_12" function="internal">
        <lane id=":J12_12_0" index="0" disallow="pedestrian tram rail_urban rail rail_electric rail_fast ship" speed="8.28" length="13.90" shape="10654.81,13088.38 10654.53,13083.54 10653.56,13079.98 10651.90,13077.70 10649.55,13076.71"/>
    </edge>
    <edge id=":J12_13" function="internal">
        <lane id=":J12_13_0" index="0" disallow="pedestrian tram rail_urban rail rail_electric rail_fast ship" speed="10.00" length="29.70" shape="10658.01,13088.42 10658.60,13079.66 10659.71,13073.70 10660.75,13067.74 10661.09,13058.98"/>
        <lane id=":J12_13_1" index="1" disallow="pedestrian tram rail_urban rail rail_electric rail_fast ship" speed="10.00" length="29.70" shape="10661.21,13088.45 10661.80,13079.66 10662.91,13073.69 10663.95,13067.71 10664.29,13058.92"/>
    </edge>
    <edge id=":J12_15" function="internal">
        <lane id=":J12_15_0" index="0" disallow="pedestrian tram rail_urban rail rail_electric rail_fast ship" speed="10.24" length="25.55" shape="10664.41,13088.49 10665.50,13081.48 10668.59,13076.71 10673.67,13074.18 10680.76,13073.88"/>
    </edge>
    <edge id=":J14_0" function="internal">
        <lane id=":J14_0_0" index="0" disallow="pedestrian tram rail_urban rail rail_electric rail_fast ship" speed="13.89" length="0.44" shape="11166.43,13031.71 11166.36,13031.72 11166.32,13031.73 11166.27,13031.74 11166.21,13031.76"/>
        <lane id=":J14_0_1" index="1" disallow="pedestrian tram rail_urban rail rail_electric rail_fast ship" speed="13.89" length="0.44" shape="11165.94,13028.55 11165.75,13028.58 11165.62,13028.60 11165.49,13028.63 11165.30,13028.69"/>
    </edge>
    <edge id=":J14_2" function="internal">
        <lane id=":J14_2_0" index="0" disallow="pedestrian tram rail_urban rail rail_electric rail_fast ship" speed="13.89" length="1.31" shape="11163.49,13022.55 11163.92,13022.42 11164.23,13022.35 11164.53,13022.29 11164.98,13022.22"/>
        <lane id=":J14_2_1" index="1" disallow="pedestrian tram rail_urban rail rail_electric rail_fast ship" speed="13.89" length="1.31" shape="11164.40,13025.62 11164.71,13025.53 11164.92,13025.47 11165.14,13025.43 11165.46,13025.38"/>
    </edge>